<?xml version="1.0" encoding="UTF-8"?>

<!-- generated on Tue Jun 27 14:02:50 2017 by SUMO duarouter Version 0.28.0
<?xml version="1.0" encoding="UTF-8"?>

<configuration xmlns:xsi="http://www.w3.org/2001/XMLSchema-instance" xsi:noNamespaceSchemaLocation="http://sumo.dlr.de/xsd/duarouterConfiguration.xsd">

    <input>
        <net-file value="bangalore.net.xml"/>
        <trip-files value="trips.trips.xml"/>
    </input>

    <output>
        <output-file value="bangalore.rou.xml"/>
    </output>

    <processing>
        <ignore-errors value="true"/>
    </processing>

    <time>
        <begin value="0"/>
        <end value="100.0"/>
    </time>

    <report>
        <no-warnings value="true"/>
        <no-step-log value="true"/>
    </report>

</configuration>
-->

<routes xmlns:xsi="http://www.w3.org/2001/XMLSchema-instance" xsi:noNamespaceSchemaLocation="http://sumo.dlr.de/xsd/routes_file.xsd">
    <vehicle id="0" depart="0.00">
        <route edges="37723516#4 -37723516#4 -37723516#3 -139488481 139488487#5 139488487#6 139488487#7 139488482 -139488508#0 -139488487#1 -139488487#0 143519232#1 139488505#0 139488505#1 143519233#0 143519233#1 143519233#2"/>
    </vehicle>
    <vehicle id="1" depart="1.00">
        <route edges="139488486 -37723516#0 -44945503#5 -44945503#4 -139488508#1"/>
    </vehicle>
    <vehicle id="2" depart="2.00">
        <route edges="143519233#5 44945503#2 44945503#3 -139488508#1 -139488482 -139488487#7 -139488487#6 -139488487#5 139488481 37723516#3 37723516#4 -59381437#1"/>
    </vehicle>
    <vehicle id="3" depart="3.00">
        <route edges="59381437#1 -37723516#4 -37723516#3 -139488481 139488487#5 139488487#6 139488487#7 139488482 139488508#1 44945503#4 139488495#0 -139488495#0"/>
    </vehicle>
    <vehicle id="4" depart="4.00">
        <route edges="143519260 44945503#3 44945503#4 44945503#5"/>
    </vehicle>
    <vehicle id="5" depart="5.00">
        <route edges="-203058639 139488487#7 139488482 139488508#1 -44945503#3 -44945503#2 -44945503#1 44945503#1"/>
    </vehicle>
    <vehicle id="6" depart="6.00">
        <route edges="-37723516#5 -37723516#4 -37723516#3 -139488481 139488487#5 139488487#6 139488487#7 139488482 139488508#1 44945503#4 139488495#0 -139488495#2 -139488495#1"/>
    </vehicle>
    <vehicle id="7" depart="7.00">
        <route edges="37723516#4 -37723516#4 -37723516#3 -37723516#2 -37723516#1 37723516#1"/>
    </vehicle>
    <vehicle id="8" depart="8.00">
        <route edges="143519291 59381436#2 59381436#3 232750801#0 -37723516#3 -139488481 139488487#5 139488487#6 139488487#7 139488482 139488508#1 44945503#4 -44945503#4"/>
    </vehicle>
    <vehicle id="9" depart="9.00">
        <route edges="143519255 -139488505#2 143519233#0 143519233#1 143519233#2 143519233#3 143519233#4 143519233#5 -44945503#1"/>
    </vehicle>
    <vehicle id="10" depart="10.00">
        <route edges="143519258 -143519233#4 -143519233#3"/>
    </vehicle>
    <vehicle id="11" depart="11.00">
        <route edges="143519294 59381436#1 59381436#2 59381436#3 232750801#0 -37723516#3 -139488481 139488487#5 139488487#6 139488487#7 139488482 139488508#1 -44945503#3 -44945503#2 -44945503#1 44945503#1"/>
    </vehicle>
    <vehicle id="12" depart="12.00">
        <route edges="-139488495#2 -139488495#1 -139488495#0 -44945503#4 -139488508#1"/>
    </vehicle>
    <vehicle id="13" depart="13.00">
        <route edges="-37723516#5 -37723516#4 -37723516#3 -37723516#2 -37723516#1 -37723516#0"/>
    </vehicle>
    <vehicle id="14" depart="14.00">
        <route edges="-37723516#4 -37723516#3"/>
    </vehicle>
    <vehicle id="15" depart="15.00">
        <route edges="-44945503#6 -44945503#5"/>
    </vehicle>
    <vehicle id="16" depart="16.00">
        <route edges="143519230 143519233#1 143519233#2 143519233#3 143519233#4 143519233#5 44945503#2 44945503#3 44945503#4 139488495#0 -139488495#0"/>
    </vehicle>
    <vehicle id="17" depart="17.00">
        <route edges="-44945503#6 -44945503#5 139488495#0 -139488495#0"/>
    </vehicle>
    <vehicle id="18" depart="18.00">
        <route edges="143519260 44945503#3 -139488508#1 -139488482 -139488487#7 -139488487#6 -139488487#5 139488481 37723516#3 -232750801#0 -59381436#3 59381437#0"/>
    </vehicle>
    <vehicle id="19" depart="19.00">
        <route edges="37723516#0 37723516#1 37723516#2 37723516#3 -232750801#0 232750801#0"/>
    </vehicle>
    <vehicle id="20" depart="20.00">
        <route edges="-143519229#1 -139488487#0 143519232#1 139488505#0 139488505#1 143519233#0 143519233#1 143519233#2 143519233#3 143519233#4 143519233#5 -44945503#1 44945503#1"/>
    </vehicle>
    <vehicle id="21" depart="21.00">
        <route edges="44945503#1 44945503#2 44945503#3 -139488508#1"/>
    </vehicle>
    <vehicle id="22" depart="22.00">
        <route edges="139488489#1 -139488489#1 -139488487#5 139488481 37723516#3 -232750801#0 -59381436#3"/>
    </vehicle>
    <vehicle id="23" depart="23.00">
        <route edges="139488495#0 -139488495#0 -44945503#4 -139488508#1 -139488482 -139488487#7 203058639 -203058639"/>
    </vehicle>
    <vehicle id="24" depart="24.00">
        <route edges="143519259 143519233#4 143519233#5 44945503#2 44945503#3 44945503#4 139488495#0"/>
    </vehicle>
    <vehicle id="25" depart="25.00">
        <route edges="-139488495#2 -139488495#1 -139488495#0 -44945503#4 -44945503#3 -44945503#2 -143519233#5 -143519233#4 -143519233#3 -143519233#2 -143519233#1 -143519233#0 -139488505#1 -139488505#0 -143519232#1 139488487#0"/>
    </vehicle>
    <vehicle id="26" depart="26.00">
        <route edges="-232750801#0 232750801#0 -37723516#3 -139488481 139488487#5 139488487#6 139488487#7 139488482 139488508#1 -44945503#3 -44945503#2 -44945503#1 44945503#1"/>
    </vehicle>
    <vehicle id="27" depart="27.00">
        <route edges="-139488495#0 -44945503#4 -139488508#1 -139488482 -139488487#7 -139488487#6 -139488487#5 139488481 37723516#3 -232750801#0 -59381436#3 -59381436#2 -59381436#1 -143519294"/>
    </vehicle>
    <vehicle id="28" depart="28.00">
        <route edges="37723516#4 -37723516#4 -37723516#3 -139488481 139488487#5 139488489#1"/>
    </vehicle>
    <vehicle id="29" depart="29.00">
        <route edges="-139488487#3 -139488489#1 -139488487#5 139488481 37723516#3 -232750801#0 -59381436#3 -59381436#2 -59381436#1 59381436#1"/>
    </vehicle>
    <vehicle id="30" depart="30.00">
        <route edges="-44945503#4 -139488508#1 -139488482 -139488487#7 203058639"/>
    </vehicle>
    <vehicle id="31" depart="31.00">
        <route edges="139488487#3 -139488487#3 -139488487#2 -139488487#1 -139488487#0 143519232#1 139488505#0 139488505#1 143519233#0"/>
    </vehicle>
    <vehicle id="32" depart="32.00">
        <route edges="-232750801#1 -37723516#3 -139488481 139488487#5 139488487#6 139488487#7 139488482 139488508#1 44945503#4 139488495#0"/>
    </vehicle>
    <vehicle id="33" depart="33.00">
        <route edges="-37723516#5 -37723516#4 -37723516#3 -139488481 139488487#5 139488487#6 139488487#7 139488482 139488508#1 -44945503#3 -44945503#2 -44945503#1 44945503#1"/>
    </vehicle>
    <vehicle id="34" depart="34.00">
        <route edges="143519232#1 -143519232#1 139488487#0 139488487#1 139488508#0 -139488482 -139488487#7 -139488487#6 -139488487#5 139488481 37723516#3 -232750801#0 232750801#0"/>
    </vehicle>
    <vehicle id="35" depart="35.00">
        <route edges="143519291 59381436#2 59381437#0 -59381437#0"/>
    </vehicle>
    <vehicle id="36" depart="36.00">
        <route edges="44945503#1 44945503#2 44945503#3 -139488508#1 139488508#1"/>
    </vehicle>
    <vehicle id="37" depart="37.00">
        <route edges="59381437#1 -37723516#4 -37723516#3 -139488481 139488487#5 139488487#6 139488487#7 139488482 139488508#1 44945503#4 139488495#0 -139488495#0"/>
    </vehicle>
    <vehicle id="38" depart="38.00">
        <route edges="-139488495#0 139488495#0 -139488495#2"/>
    </vehicle>
    <vehicle id="39" depart="39.00">
        <route edges="-139488487#5 139488481 -37723516#2 -37723516#1 -37723516#0"/>
    </vehicle>
    <vehicle id="40" depart="40.00">
        <route edges="139488489#0 -139488487#5 139488481 37723516#3 -232750801#0 -59381436#3"/>
    </vehicle>
    <vehicle id="41" depart="41.00">
        <route edges="-59381437#0 59381436#3 232750801#0 -37723516#3 -139488481 139488487#5 -139488489#0 -139488487#3"/>
    </vehicle>
    <vehicle id="42" depart="42.00">
        <route edges="-44945503#4 -139488508#1"/>
    </vehicle>
    <vehicle id="43" depart="43.00">
        <route edges="37723516#0 37723516#1 -203058639 139488487#7 139488482 -139488508#0 -139488487#1 -139488487#0 -143519232#0 -143519227#0"/>
    </vehicle>
    <vehicle id="44" depart="44.00">
        <route edges="-139488495#0 -44945503#4 -139488508#1 -139488482 -139488487#7 -139488487#6 -139488487#5 139488481 37723516#3 -232750801#0 -59381436#3"/>
    </vehicle>
    <vehicle id="45" depart="45.00">
        <route edges="139488486 -139488486"/>
    </vehicle>
    <vehicle id="46" depart="46.00">
        <route edges="37723516#3 -37723516#3 -139488481 139488487#5 139488487#6 139488487#7 139488482 139488508#1 44945503#4 139488495#0 -139488495#2 -139488495#1"/>
    </vehicle>
    <vehicle id="47" depart="47.00">
        <route edges="139488495#0 -139488495#0"/>
    </vehicle>
    <vehicle id="48" depart="48.00">
        <route edges="143519477#0 59381437#1 -37723516#4"/>
    </vehicle>
    <vehicle id="49" depart="49.00">
        <route edges="139488495#0 -139488495#0 -44945503#4 -139488508#1 -139488482 -139488487#7 -139488487#6 -139488487#5 139488481 -139488481"/>
    </vehicle>
    <vehicle id="50" depart="50.00">
        <route edges="143519258 -143519233#4 -143519233#3 -143519233#2 -143519233#1 -143519233#0 -139488505#1 -139488505#0 -143519232#1 139488487#0 139488487#1 139488508#0 -139488482 -139488487#7 203058639 37723516#2"/>
    </vehicle>
    <vehicle id="51" depart="51.00">
        <route edges="-37723516#5 -59381437#1 -59381437#0 59381436#3 232750801#0"/>
    </vehicle>
    <vehicle id="52" depart="52.00">
        <route edges="-139488495#2 -139488495#1 -139488495#0 -44945503#4 -44945503#3 -44945503#2 -44945503#1"/>
    </vehicle>
    <vehicle id="53" depart="53.00">
        <route edges="-139488495#0 -44945503#4 -139488508#1"/>
    </vehicle>
    <vehicle id="54" depart="54.00">
        <route edges="203058639 -203058639 139488487#7 139488482 139488508#1 44945503#4 -44945503#4"/>
    </vehicle>
    <vehicle id="55" depart="55.00">
        <route edges="-37723516#0 -44945503#5 139488495#0"/>
    </vehicle>
    <vehicle id="56" depart="56.00">
        <route edges="232750801#0 -232750801#0 -59381436#3 59381437#0 59381437#1"/>
    </vehicle>
    <vehicle id="57" depart="57.00">
        <route edges="-59381437#0 59381436#3 232750801#0 -37723516#3 -139488481 139488487#5 139488489#1 139488487#3"/>
    </vehicle>
    <vehicle id="58" depart="58.00">
        <route edges="-59381437#1 -59381437#0 59381436#3 232750801#0 37723516#4"/>
    </vehicle>
    <vehicle id="59" depart="59.00">
        <route edges="59381436#3 232750801#0 -37723516#3 -139488481 139488487#5 139488487#6 139488487#7 139488482 -139488508#0 -139488487#1 -139488487#0 143519232#1"/>
    </vehicle>
    <vehicle id="60" depart="60.00">
        <route edges="-139488495#0 139488495#0"/>
    </vehicle>
    <vehicle id="61" depart="61.00">
        <route edges="143519233#3 143519233#4 143519233#5 44945503#2 44945503#3 44945503#4 139488495#0 -139488495#2"/>
    </vehicle>
    <vehicle id="62" depart="62.00">
        <route edges="-44945503#5 -44945503#4 -44945503#3 -44945503#2 -143519233#5 -143519233#4 -143519233#3 -143519233#2 -143519233#1 -143519233#0 -139488505#1 -143519227#1 143519227#1"/>
    </vehicle>
    <vehicle id="63" depart="63.00">
        <route edges="-37723516#4 -37723516#3 -139488481 139488487#5 139488487#6 139488487#7 139488482 139488508#1 44945503#4 139488495#0 -139488495#2"/>
    </vehicle>
    <vehicle id="64" depart="64.00">
        <route edges="-139488495#0 -44945503#4 -139488508#1 -139488482 -139488487#7 -139488487#6 -139488487#5 139488481 37723516#3 37723516#4 -37723516#4"/>
    </vehicle>
    <vehicle id="65" depart="65.00">
        <route edges="37723516#0 37723516#1 -203058639 139488487#7 139488482 -139488508#0 -139488487#1 -139488487#0 143519232#1 139488505#0 139488505#1 139488505#2 139488505#3"/>
    </vehicle>
    <vehicle id="66" depart="66.00">
        <route edges="-37723516#3 -139488481 139488487#5 139488487#6 139488487#7 139488482 139488508#1 44945503#4 139488495#0 -139488495#0"/>
    </vehicle>
    <vehicle id="67" depart="67.00">
        <route edges="-37723516#5 -37723516#4 -37723516#3 -37723516#2 -203058639"/>
    </vehicle>
    <vehicle id="68" depart="68.00">
        <route edges="-139488495#0 -44945503#4 -139488508#1 -139488482 -139488487#7 -139488487#6 139488489#1"/>
    </vehicle>
    <vehicle id="69" depart="69.00">
        <route edges="-37723516#4 -37723516#3 -139488481 139488487#5 139488487#6 139488487#7 139488482 -139488508#0 -139488487#1 -139488487#0 143519232#1 139488505#0 139488505#1 143519233#0 -143519233#0"/>
    </vehicle>
    <vehicle id="70" depart="70.00">
        <route edges="232750801#0 -37723516#3 -139488481 139488487#5 139488487#6 139488487#7 139488482 139488508#1 44945503#4 139488495#0 -139488495#2 -139488495#1"/>
    </vehicle>
    <vehicle id="71" depart="71.00">
        <route edges="37723516#4 -37723516#4 -37723516#3 -139488481 139488487#5 139488487#6 139488487#7 139488482 139488508#1"/>
    </vehicle>
    <vehicle id="72" depart="72.00">
        <route edges="-139488495#2 -139488495#1 -139488495#0 44945503#5 37723516#0 -139488486"/>
    </vehicle>
    <vehicle id="73" depart="73.00">
        <route edges="-44945503#6 -44945503#5 139488495#0 -139488495#0"/>
    </vehicle>
    <vehicle id="74" depart="74.00">
        <route edges="-139488495#0 -44945503#4 -44945503#3 -44945503#2 -44945503#1"/>
    </vehicle>
    <vehicle id="75" depart="75.00">
        <route edges="143519232#1 -143519232#1 139488487#0 139488487#1 139488508#0 -139488482 -139488487#7 -139488487#6 -139488487#5 139488481 37723516#3 232750801#1"/>
    </vehicle>
    <vehicle id="76" depart="76.00">
        <route edges="44945503#1 44945503#2 44945503#3 -139488508#1 -139488482 -139488487#7 -139488487#6 -139488487#5 139488481 37723516#3 -232750801#0 -59381436#3 59381437#0 143519477#1"/>
    </vehicle>
    <vehicle id="77" depart="77.00">
        <route edges="139488495#0 -139488495#0 -44945503#4 -44945503#3 -44945503#2 -44945503#1 44945503#1"/>
    </vehicle>
    <vehicle id="78" depart="78.00">
        <route edges="-139488508#1 139488508#1 44945503#4 139488495#0"/>
    </vehicle>
    <vehicle id="79" depart="79.00">
        <route edges="-143519233#5 -143519233#4 -143519233#3 -143519233#2 -143519233#1 -143519233#0 -139488505#1 -139488505#0 -143519232#1 139488487#0 139488487#1 139488508#0 -139488482 -139488487#7 203058639 -37723516#1 -139488486"/>
    </vehicle>
    <vehicle id="80" depart="80.00">
        <route edges="59381436#1 59381436#2 59381436#3 232750801#0 -232750801#0"/>
    </vehicle>
    <vehicle id="81" depart="81.00">
        <route edges="-44945503#1 44945503#1 44945503#2 44945503#3 -139488508#1 -139488482 -139488487#7 -139488487#6 -139488487#5 139488481 37723516#3 37723516#4"/>
    </vehicle>
    <vehicle id="82" depart="82.00">
        <route edges="37723516#0 -37723516#0 -44945503#5 139488495#0 -139488495#0"/>
    </vehicle>
    <vehicle id="83" depart="83.00">
        <route edges="-44945503#5 139488495#0"/>
    </vehicle>
    <vehicle id="84" depart="84.00">
        <route edges="-139488495#0 44945503#5 37723516#0 -139488486"/>
    </vehicle>
    <vehicle id="85" depart="85.00">
        <route edges="139488495#0 -139488495#0 -44945503#4 -139488508#1 -139488508#0 139488487#2 139488487#3"/>
    </vehicle>
    <vehicle id="86" depart="86.00">
        <route edges="-59381436#3 59381436#3 232750801#0 -37723516#3 -139488481 139488487#5 139488487#6 139488487#7 139488482 -139488508#0 -139488487#1 -139488487#0 143519232#1 139488505#0 139488505#1 139488505#2 -143519255"/>
    </vehicle>
    <vehicle id="87" depart="87.00">
        <route edges="-37723516#5 -37723516#4 -37723516#3 -139488481 139488487#5 139488487#6 139488487#7 139488482 139488508#1 -44945503#3 -44945503#2 44945503#2"/>
    </vehicle>
    <vehicle id="88" depart="88.00">
        <route edges="143519255 -139488505#2 143519233#0 143519233#1 143519233#2 143519233#3 143519233#4 143519233#5 44945503#2 44945503#3 44945503#4 139488495#0"/>
    </vehicle>
    <vehicle id="89" depart="89.00">
        <route edges="44945503#1 44945503#2 44945503#3 44945503#4 139488495#0"/>
    </vehicle>
    <vehicle id="90" depart="90.00">
        <route edges="143519291 59381436#2 59381436#3 232750801#0 -37723516#3 -139488481 139488487#5 139488489#1 -139488489#1"/>
    </vehicle>
    <vehicle id="91" depart="91.00">
        <route edges="143519268 143519233#2 143519233#3 143519233#4 143519233#5 44945503#2 44945503#3 44945503#4"/>
    </vehicle>
    <vehicle id="92" depart="92.00">
        <route edges="143519294 59381436#1 59381436#2 59381436#3 232750801#0 -37723516#3 -139488481 139488487#5 139488487#6 139488487#7 139488482 139488508#1 -44945503#3 -44945503#2 -44945503#1 44945503#1"/>
    </vehicle>
    <vehicle id="93" depart="93.00">
        <route edges="139488487#4 139488481 37723516#3 37723516#4"/>
    </vehicle>
    <vehicle id="94" depart="94.00">
        <route edges="37723516#4 37723516#5"/>
    </vehicle>
    <vehicle id="95" depart="95.00">
        <route edges="37723516#0 37723516#1 -203058639 139488487#7 139488482 -139488508#0 -139488487#1 143519229#1"/>
    </vehicle>
    <vehicle id="96" depart="96.00">
        <route edges="-37723516#0 37723516#0 37723516#1 -37723516#1"/>
    </vehicle>
    <vehicle id="97" depart="97.00">
        <route edges="139488487#7 139488482 139488508#1 44945503#4 139488495#0"/>
    </vehicle>
    <vehicle id="98" depart="98.00">
        <route edges="143519226 143519233#3 143519233#4 143519233#5 44945503#2 44945503#3 44945503#4 139488495#0"/>
    </vehicle>
    <vehicle id="99" depart="99.00">
        <route edges="139488495#1 -139488495#1 -139488495#0 -44945503#4"/>
    </vehicle>
</routes>
