<?xml version="1.0" encoding="UTF-8"?>

<!-- generated on Tue Jun 27 14:02:46 2017 by SUMO netconvert Version 0.28.0
<?xml version="1.0" encoding="UTF-8"?>

<configuration xmlns:xsi="http://www.w3.org/2001/XMLSchema-instance" xsi:noNamespaceSchemaLocation="http://sumo.dlr.de/xsd/netconvertConfiguration.xsd">

    <input>
        <osm-files value="bangalore.osm"/>
    </input>

    <output>
        <output-file value="bangalore.net.xml"/>
    </output>

    <projection>
        <proj.utm value="true"/>
    </projection>

</configuration>
-->

<net version="0.27" xmlns:xsi="http://www.w3.org/2001/XMLSchema-instance" xsi:noNamespaceSchemaLocation="http://sumo.dlr.de/xsd/net_file.xsd">

    <location netOffset="-792537.21,-1439175.19" convBoundary="0.00,0.00,1904.68,1688.25" origBoundary="77.696855,13.004288,77.714404,13.019556" projParameter="+proj=utm +zone=43 +ellps=WGS84 +datum=WGS84 +units=m +no_defs"/>

    <type id="highway.bridleway" priority="1" numLanes="1" speed="2.78" allow="pedestrian" oneway="1" width="2.00"/>
    <type id="highway.bus_guideway" priority="1" numLanes="1" speed="8.33" allow="bus" oneway="1"/>
    <type id="highway.cycleway" priority="1" numLanes="1" speed="5.56" allow="bicycle" oneway="0" width="1.00"/>
    <type id="highway.footway" priority="1" numLanes="1" speed="2.78" allow="pedestrian" oneway="1" width="2.00"/>
    <type id="highway.ford" priority="1" numLanes="1" speed="2.78" allow="army" oneway="0"/>
    <type id="highway.living_street" priority="3" numLanes="1" speed="2.78" disallow="tram rail_urban rail rail_electric ship" oneway="0"/>
    <type id="highway.motorway" priority="13" numLanes="2" speed="44.44" allow="private emergency authority army vip passenger hov taxi bus coach delivery truck trailer motorcycle evehicle custom1 custom2" oneway="1"/>
    <type id="highway.motorway_link" priority="12" numLanes="1" speed="22.22" allow="private emergency authority army vip passenger hov taxi bus coach delivery truck trailer motorcycle evehicle custom1 custom2" oneway="1"/>
    <type id="highway.path" priority="1" numLanes="1" speed="2.78" allow="bicycle pedestrian" oneway="1" width="2.00"/>
    <type id="highway.pedestrian" priority="1" numLanes="1" speed="2.78" allow="pedestrian" oneway="1" width="2.00"/>
    <type id="highway.primary" priority="9" numLanes="2" speed="27.78" disallow="tram rail_urban rail rail_electric ship" oneway="0"/>
    <type id="highway.primary_link" priority="8" numLanes="1" speed="22.22" disallow="tram rail_urban rail rail_electric ship" oneway="0"/>
    <type id="highway.raceway" priority="14" numLanes="2" speed="83.33" allow="vip" oneway="0"/>
    <type id="highway.residential" priority="4" numLanes="1" speed="13.89" disallow="tram rail_urban rail rail_electric ship" oneway="0"/>
    <type id="highway.secondary" priority="7" numLanes="2" speed="27.78" disallow="tram rail_urban rail rail_electric ship" oneway="0"/>
    <type id="highway.secondary_link" priority="6" numLanes="1" speed="22.22" disallow="tram rail_urban rail rail_electric ship" oneway="0"/>
    <type id="highway.service" priority="2" numLanes="1" speed="5.56" allow="delivery bicycle pedestrian" oneway="0"/>
    <type id="highway.services" priority="1" numLanes="1" speed="8.33" disallow="tram rail_urban rail rail_electric ship" oneway="0"/>
    <type id="highway.stairs" priority="1" numLanes="1" speed="1.39" allow="pedestrian" oneway="1" width="2.00"/>
    <type id="highway.step" priority="1" numLanes="1" speed="1.39" allow="pedestrian" oneway="1" width="2.00"/>
    <type id="highway.steps" priority="1" numLanes="1" speed="1.39" allow="pedestrian" oneway="1" width="2.00"/>
    <type id="highway.tertiary" priority="6" numLanes="1" speed="22.22" disallow="tram rail_urban rail rail_electric ship" oneway="0"/>
    <type id="highway.tertiary_link" priority="5" numLanes="1" speed="22.22" disallow="tram rail_urban rail rail_electric ship" oneway="0"/>
    <type id="highway.track" priority="1" numLanes="1" speed="5.56" disallow="tram rail_urban rail rail_electric ship" oneway="0"/>
    <type id="highway.trunk" priority="11" numLanes="2" speed="27.78" disallow="tram rail_urban rail rail_electric bicycle pedestrian ship" oneway="0"/>
    <type id="highway.trunk_link" priority="10" numLanes="1" speed="22.22" disallow="tram rail_urban rail rail_electric bicycle pedestrian ship" oneway="0"/>
    <type id="highway.unclassified" priority="5" numLanes="1" speed="13.89" disallow="tram rail_urban rail rail_electric ship" oneway="0"/>
    <type id="highway.unsurfaced" priority="1" numLanes="1" speed="8.33" disallow="tram rail_urban rail rail_electric ship" oneway="0"/>
    <type id="railway.light_rail" priority="15" numLanes="1" speed="27.78" allow="rail_urban" oneway="1"/>
    <type id="railway.preserved" priority="15" numLanes="1" speed="27.78" allow="rail" oneway="1"/>
    <type id="railway.rail" priority="15" numLanes="1" speed="83.33" allow="rail rail_electric" oneway="1"/>
    <type id="railway.subway" priority="15" numLanes="1" speed="27.78" allow="rail_urban" oneway="1"/>
    <type id="railway.tram" priority="15" numLanes="1" speed="13.89" allow="tram" oneway="1"/>

    <edge id=":1529101063_0" function="internal">
        <lane id=":1529101063_0_0" index="0" disallow="tram rail_urban rail rail_electric ship" speed="13.89" length="4.98" shape="1031.34,916.06 1030.03,915.66 1028.91,915.77 1027.97,916.39 1027.20,917.52"/>
    </edge>
    <edge id=":1529101063_1" function="internal">
        <lane id=":1529101063_1_0" index="0" disallow="tram rail_urban rail rail_electric ship" speed="13.89" length="10.01" shape="1031.34,916.06 1022.40,911.56"/>
    </edge>
    <edge id=":1529101063_2" function="internal">
        <lane id=":1529101063_2_0" index="0" disallow="tram rail_urban rail rail_electric ship" speed="13.89" length="5.38" shape="1031.34,916.06 1029.02,914.51 1027.70,912.50 1027.68,912.32"/>
    </edge>
    <edge id=":1529101063_3" function="internal">
        <lane id=":1529101063_3_0" index="0" disallow="tram rail_urban rail rail_electric ship" speed="13.89" length="2.51" shape="1031.34,916.06 1030.57,914.79 1030.55,913.87 1030.63,913.80"/>
    </edge>
    <edge id=":1529101063_16" function="internal">
        <lane id=":1529101063_16_0" index="0" speed="13.89" length="5.31" shape="1027.68,912.32 1027.38,910.03 1028.06,907.10"/>
    </edge>
    <edge id=":1529101063_17" function="internal">
        <lane id=":1529101063_17_0" index="0" speed="13.89" length="2.31" shape="1030.63,913.80 1031.27,913.30 1032.74,913.08"/>
    </edge>
    <edge id=":1529101063_4" function="internal">
        <lane id=":1529101063_4_0" index="0" disallow="tram rail_urban rail rail_electric ship" speed="13.89" length="5.68" shape="1031.15,908.26 1030.77,909.86 1030.90,911.19 1031.56,912.27 1032.74,913.08"/>
    </edge>
    <edge id=":1529101063_5" function="internal">
        <lane id=":1529101063_5_0" index="0" disallow="tram rail_urban rail rail_electric ship" speed="13.89" length="10.07" shape="1031.15,908.26 1027.20,917.52"/>
    </edge>
    <edge id=":1529101063_6" function="internal">
        <lane id=":1529101063_6_0" index="0" disallow="tram rail_urban rail rail_electric ship" speed="13.89" length="11.02" shape="1031.15,908.26 1029.67,910.96 1027.72,912.41 1025.30,912.61 1022.40,911.56"/>
    </edge>
    <edge id=":1529101063_7" function="internal">
        <lane id=":1529101063_7_0" index="0" disallow="tram rail_urban rail rail_electric ship" speed="13.89" length="4.82" shape="1031.15,908.26 1029.95,909.13 1029.03,909.23 1028.40,908.55 1028.06,907.10"/>
    </edge>
    <edge id=":1529101063_8" function="internal">
        <lane id=":1529101063_8_0" index="0" disallow="tram rail_urban rail rail_electric ship" speed="13.89" length="5.17" shape="1023.96,908.65 1025.32,909.14 1026.45,909.05 1027.37,908.37 1028.06,907.10"/>
    </edge>
    <edge id=":1529101063_9" function="internal">
        <lane id=":1529101063_9_0" index="0" disallow="tram rail_urban rail rail_electric ship" speed="13.89" length="9.84" shape="1023.96,908.65 1032.74,913.08"/>
    </edge>
    <edge id=":1529101063_10" function="internal">
        <lane id=":1529101063_10_0" index="0" disallow="tram rail_urban rail rail_electric ship" speed="13.89" length="5.49" shape="1023.96,908.65 1026.41,910.41 1027.77,912.47"/>
    </edge>
    <edge id=":1529101063_11" function="internal">
        <lane id=":1529101063_11_0" index="0" disallow="tram rail_urban rail rail_electric ship" speed="13.89" length="2.41" shape="1023.96,908.65 1024.66,909.96 1024.64,910.88"/>
    </edge>
    <edge id=":1529101063_18" function="internal">
        <lane id=":1529101063_18_0" index="0" speed="13.89" length="5.19" shape="1027.77,912.47 1028.03,914.84 1027.20,917.52"/>
    </edge>
    <edge id=":1529101063_19" function="internal">
        <lane id=":1529101063_19_0" index="0" speed="13.89" length="2.41" shape="1024.64,910.88 1023.88,911.42 1022.40,911.56"/>
    </edge>
    <edge id=":1529101063_12" function="internal">
        <lane id=":1529101063_12_0" index="0" disallow="tram rail_urban rail rail_electric ship" speed="13.89" length="5.51" shape="1024.24,916.08 1024.63,914.74 1024.46,913.54 1023.72,912.48 1022.40,911.56"/>
    </edge>
    <edge id=":1529101063_13" function="internal">
        <lane id=":1529101063_13_0" index="0" disallow="tram rail_urban rail rail_electric ship" speed="13.89" length="9.76" shape="1024.24,916.08 1028.06,907.10"/>
    </edge>
    <edge id=":1529101063_14" function="internal">
        <lane id=":1529101063_14_0" index="0" disallow="tram rail_urban rail rail_electric ship" speed="13.89" length="10.26" shape="1024.24,916.08 1025.81,913.75 1027.75,912.48 1030.06,912.25 1032.74,913.08"/>
    </edge>
    <edge id=":1529101063_15" function="internal">
        <lane id=":1529101063_15_0" index="0" disallow="tram rail_urban rail rail_electric ship" speed="13.89" length="4.82" shape="1024.24,916.08 1025.52,915.33 1026.44,915.32 1027.00,916.05 1027.20,917.52"/>
    </edge>
    <edge id=":1529101076_0" function="internal">
        <lane id=":1529101076_0_0" index="0" disallow="tram rail_urban rail rail_electric ship" speed="13.89" length="5.84" shape="1041.24,875.87 1039.64,875.16 1038.48,875.26 1037.76,876.18 1037.49,877.91"/>
    </edge>
    <edge id=":1529101076_1" function="internal">
        <lane id=":1529101076_1_0" index="0" disallow="tram rail_urban rail rail_electric ship" speed="13.89" length="11.03" shape="1041.24,875.87 1038.25,873.83 1036.04,871.83 1034.60,869.89 1033.93,867.99"/>
    </edge>
    <edge id=":1529101076_2" function="internal">
        <lane id=":1529101076_2_0" index="0" disallow="tram rail_urban rail rail_electric ship" speed="13.89" length="4.82" shape="1041.24,875.87 1040.62,874.52 1040.70,873.60 1041.48,873.11 1042.97,873.06"/>
    </edge>
    <edge id=":1529101076_3" function="internal">
        <lane id=":1529101076_3_0" index="0" disallow="tram rail_urban rail rail_electric ship" speed="13.89" length="8.18" shape="1037.19,867.50 1037.68,868.68 1038.80,870.00 1040.56,871.46 1042.97,873.06"/>
    </edge>
    <edge id=":1529101076_4" function="internal">
        <lane id=":1529101076_4_0" index="0" disallow="tram rail_urban rail rail_electric ship" speed="13.89" length="10.44" shape="1037.19,867.50 1037.57,870.51 1037.66,872.69 1037.60,874.87 1037.49,877.91"/>
    </edge>
    <edge id=":1529101076_5" function="internal">
        <lane id=":1529101076_5_0" index="0" disallow="tram rail_urban rail rail_electric ship" speed="13.89" length="2.66" shape="1037.19,867.50 1036.56,868.85 1035.81,869.38 1035.57,869.30"/>
    </edge>
    <edge id=":1529101076_9" function="internal">
        <lane id=":1529101076_9_0" index="0" speed="13.89" length="2.16" shape="1035.57,869.30 1034.93,869.09 1033.93,867.99"/>
    </edge>
    <edge id=":1529101076_6" function="internal">
        <lane id=":1529101076_6_0" index="0" disallow="tram rail_urban rail rail_electric ship" speed="13.89" length="9.85" shape="1034.19,877.83 1033.93,867.99"/>
    </edge>
    <edge id=":1529101076_7" function="internal">
        <lane id=":1529101076_7_0" index="0" disallow="tram rail_urban rail rail_electric ship" speed="13.89" length="6.08" shape="1034.19,877.83 1034.83,873.78 1036.04,872.22"/>
    </edge>
    <edge id=":1529101076_8" function="internal">
        <lane id=":1529101076_8_0" index="0" disallow="tram rail_urban rail rail_electric ship" speed="13.89" length="2.41" shape="1034.19,877.83 1035.05,876.62 1035.88,876.22"/>
    </edge>
    <edge id=":1529101076_10" function="internal">
        <lane id=":1529101076_10_0" index="0" speed="13.89" length="7.57" shape="1036.04,872.22 1036.50,871.63 1039.21,871.39 1042.97,873.06"/>
    </edge>
    <edge id=":1529101076_11" function="internal">
        <lane id=":1529101076_11_0" index="0" speed="13.89" length="2.41" shape="1035.88,876.22 1036.69,876.66 1037.49,877.91"/>
    </edge>
    <edge id=":1529101090_0" function="internal">
        <lane id=":1529101090_0_0" index="0" disallow="tram rail_urban rail rail_electric ship" speed="13.89" length="4.82" shape="1063.02,927.33 1063.78,928.60 1063.81,929.52 1063.08,930.09 1061.61,930.31"/>
    </edge>
    <edge id=":1529101102_0" function="internal">
        <lane id=":1529101102_0_0" index="0" disallow="tram rail_urban rail rail_electric ship" speed="27.78" length="9.11" shape="1388.35,1017.07 1387.04,1026.00"/>
        <lane id=":1529101102_0_1" index="1" disallow="tram rail_urban rail rail_electric ship" speed="27.78" length="9.11" shape="1385.09,1016.53 1383.76,1025.63"/>
    </edge>
    <edge id=":1529101102_2" function="internal">
        <lane id=":1529101102_2_0" index="0" disallow="tram rail_urban rail rail_electric ship" speed="20.84" length="4.77" shape="1385.09,1016.53 1383.92,1019.66 1382.79,1020.53"/>
    </edge>
    <edge id=":1529101102_3" function="internal">
        <lane id=":1529101102_3_0" index="0" disallow="tram rail_urban rail rail_electric ship" speed="27.78" length="2.41" shape="1385.09,1016.53 1384.08,1017.62 1383.20,1017.89"/>
    </edge>
    <edge id=":1529101102_11" function="internal">
        <lane id=":1529101102_11_0" index="0" speed="20.84" length="9.42" shape="1382.79,1020.53 1381.64,1021.42 1378.27,1021.82 1373.81,1020.86"/>
    </edge>
    <edge id=":1529101102_12" function="internal">
        <lane id=":1529101102_12_0" index="0" speed="27.78" length="2.41" shape="1383.20,1017.89 1382.45,1017.35 1381.84,1015.99"/>
    </edge>
    <edge id=":1529101102_4" function="internal">
        <lane id=":1529101102_4_0" index="0" disallow="tram rail_urban rail rail_electric ship" speed="20.84" length="5.19" shape="1374.84,1017.72 1376.27,1017.98 1377.37,1017.68 1378.14,1016.84 1378.58,1015.45"/>
    </edge>
    <edge id=":1529101102_5" function="internal">
        <lane id=":1529101102_5_0" index="0" disallow="tram rail_urban rail rail_electric ship" speed="20.84" length="12.79" shape="1374.84,1017.72 1378.95,1019.38 1381.81,1021.26 1383.41,1023.34 1383.76,1025.63"/>
    </edge>
    <edge id=":1529101102_6" function="internal">
        <lane id=":1529101102_6_0" index="0" disallow="tram rail_urban rail rail_electric ship" speed="13.89" length="4.82" shape="1374.84,1017.72 1375.75,1018.89 1375.89,1019.81 1375.24,1020.46 1373.81,1020.86"/>
    </edge>
    <edge id=":1529101102_7" function="internal">
        <lane id=":1529101102_7_0" index="0" disallow="tram rail_urban rail rail_electric ship" speed="20.84" length="5.73" shape="1377.20,1024.87 1377.11,1023.57 1376.52,1022.47 1375.41,1021.57 1373.81,1020.86"/>
    </edge>
    <edge id=":1529101102_8" function="internal">
        <lane id=":1529101102_8_0" index="0" disallow="tram rail_urban rail rail_electric ship" speed="27.78" length="9.43" shape="1377.20,1024.87 1378.58,1015.45"/>
        <lane id=":1529101102_8_1" index="1" disallow="tram rail_urban rail rail_electric ship" speed="27.78" length="9.43" shape="1380.48,1025.25 1381.84,1015.99"/>
    </edge>
    <edge id=":1529101102_10" function="internal">
        <lane id=":1529101102_10_0" index="0" disallow="tram rail_urban rail rail_electric ship" speed="27.78" length="2.52" shape="1380.48,1025.25 1381.44,1024.11 1382.31,1023.80 1382.40,1023.86"/>
    </edge>
    <edge id=":1529101102_13" function="internal">
        <lane id=":1529101102_13_0" index="0" speed="27.78" length="2.30" shape="1382.40,1023.86 1383.08,1024.30 1383.76,1025.63"/>
    </edge>
    <edge id=":1529101116_0" function="internal">
        <lane id=":1529101116_0_0" index="0" disallow="tram rail_urban rail rail_electric ship" speed="13.89" length="5.06" shape="1019.24,941.39 1017.91,940.99 1016.78,941.12 1015.87,941.78 1015.16,942.99"/>
    </edge>
    <edge id=":1529101116_1" function="internal">
        <lane id=":1529101116_1_0" index="0" disallow="tram rail_urban rail rail_electric ship" speed="13.89" length="9.57" shape="1019.24,941.39 1010.49,937.53"/>
    </edge>
    <edge id=":1529101116_2" function="internal">
        <lane id=":1529101116_2_0" index="0" disallow="tram rail_urban rail rail_electric ship" speed="13.89" length="5.27" shape="1019.24,941.39 1016.81,939.81 1015.48,937.85"/>
    </edge>
    <edge id=":1529101116_3" function="internal">
        <lane id=":1529101116_3_0" index="0" disallow="tram rail_urban rail rail_electric ship" speed="13.89" length="2.41" shape="1019.24,941.39 1018.47,940.12 1018.45,939.20"/>
    </edge>
    <edge id=":1529101116_16" function="internal">
        <lane id=":1529101116_16_0" index="0" speed="13.89" length="5.21" shape="1015.48,937.85 1015.24,935.50 1016.11,932.78"/>
    </edge>
    <edge id=":1529101116_17" function="internal">
        <lane id=":1529101116_17_0" index="0" speed="13.89" length="2.41" shape="1018.45,939.20 1019.17,938.62 1020.64,938.40"/>
    </edge>
    <edge id=":1529101116_4" function="internal">
        <lane id=":1529101116_4_0" index="0" disallow="tram rail_urban rail rail_electric ship" speed="13.89" length="5.10" shape="1019.08,934.22 1018.66,935.54 1018.78,936.67 1019.44,937.62 1020.64,938.40"/>
    </edge>
    <edge id=":1529101116_5" function="internal">
        <lane id=":1529101116_5_0" index="0" disallow="tram rail_urban rail rail_electric ship" speed="13.89" length="9.60" shape="1019.08,934.22 1015.16,942.99"/>
    </edge>
    <edge id=":1529101116_6" function="internal">
        <lane id=":1529101116_6_0" index="0" disallow="tram rail_urban rail rail_electric ship" speed="13.89" length="10.37" shape="1019.08,934.22 1017.50,936.57 1015.54,937.91 1013.20,938.23 1010.49,937.53"/>
    </edge>
    <edge id=":1529101116_7" function="internal">
        <lane id=":1529101116_7_0" index="0" disallow="tram rail_urban rail rail_electric ship" speed="13.89" length="4.82" shape="1019.08,934.22 1017.80,934.97 1016.87,934.98 1016.31,934.25 1016.11,932.78"/>
    </edge>
    <edge id=":1529101116_8" function="internal">
        <lane id=":1529101116_8_0" index="0" disallow="tram rail_urban rail rail_electric ship" speed="13.89" length="5.27" shape="1011.75,934.48 1013.13,934.83 1014.31,934.67 1015.31,933.98 1016.11,932.78"/>
    </edge>
    <edge id=":1529101116_9" function="internal">
        <lane id=":1529101116_9_0" index="0" disallow="tram rail_urban rail rail_electric ship" speed="13.89" length="9.71" shape="1011.75,934.48 1020.64,938.40"/>
    </edge>
    <edge id=":1529101116_10" function="internal">
        <lane id=":1529101116_10_0" index="0" disallow="tram rail_urban rail rail_electric ship" speed="13.89" length="5.36" shape="1011.75,934.48 1014.17,935.93 1015.55,937.83 1015.58,938.02"/>
    </edge>
    <edge id=":1529101116_11" function="internal">
        <lane id=":1529101116_11_0" index="0" disallow="tram rail_urban rail rail_electric ship" speed="13.89" length="2.41" shape="1011.75,934.48 1012.58,935.72 1012.64,936.64"/>
    </edge>
    <edge id=":1529101116_18" function="internal">
        <lane id=":1529101116_18_0" index="0" speed="13.89" length="5.07" shape="1015.58,938.02 1015.88,940.18 1015.16,942.99"/>
    </edge>
    <edge id=":1529101116_19" function="internal">
        <lane id=":1529101116_19_0" index="0" speed="13.89" length="2.41" shape="1012.64,936.64 1011.95,937.24 1010.49,937.53"/>
    </edge>
    <edge id=":1529101116_12" function="internal">
        <lane id=":1529101116_12_0" index="0" disallow="tram rail_urban rail rail_electric ship" speed="13.89" length="5.13" shape="1012.11,941.73 1012.47,940.34 1012.32,939.17 1011.66,938.24 1010.49,937.53"/>
    </edge>
    <edge id=":1529101116_13" function="internal">
        <lane id=":1529101116_13_0" index="0" disallow="tram rail_urban rail rail_electric ship" speed="13.89" length="9.81" shape="1012.11,941.73 1016.11,932.78"/>
    </edge>
    <edge id=":1529101116_14" function="internal">
        <lane id=":1529101116_14_0" index="0" disallow="tram rail_urban rail rail_electric ship" speed="13.89" length="10.56" shape="1012.11,941.73 1013.58,939.22 1015.50,937.83 1017.85,937.55 1020.64,938.40"/>
    </edge>
    <edge id=":1529101116_15" function="internal">
        <lane id=":1529101116_15_0" index="0" disallow="tram rail_urban rail rail_electric ship" speed="13.89" length="4.82" shape="1012.11,941.73 1013.34,940.90 1014.26,940.83 1014.86,941.53 1015.16,942.99"/>
    </edge>
    <edge id=":1529101120_0" function="internal">
        <lane id=":1529101120_0_0" index="0" disallow="tram rail_urban rail rail_electric ship" speed="13.89" length="9.52" shape="1498.68,298.75 1496.05,289.59"/>
    </edge>
    <edge id=":1529101120_1" function="internal">
        <lane id=":1529101120_1_0" index="0" disallow="tram rail_urban rail rail_electric ship" speed="13.89" length="5.29" shape="1498.68,298.75 1498.27,295.85 1498.91,293.57"/>
    </edge>
    <edge id=":1529101120_2" function="internal">
        <lane id=":1529101120_2_0" index="0" disallow="tram rail_urban rail rail_electric ship" speed="13.89" length="2.41" shape="1498.68,298.75 1499.13,297.33 1499.80,296.71"/>
    </edge>
    <edge id=":1529101120_9" function="internal">
        <lane id=":1529101120_9_0" index="0" speed="13.89" length="5.29" shape="1498.91,293.57 1500.59,291.90 1503.32,290.84"/>
    </edge>
    <edge id=":1529101120_10" function="internal">
        <lane id=":1529101120_10_0" index="0" speed="13.89" length="2.41" shape="1499.80,296.71 1500.71,296.87 1501.85,297.83"/>
    </edge>
    <edge id=":1529101120_3" function="internal">
        <lane id=":1529101120_3_0" index="0" disallow="tram rail_urban rail rail_electric ship" speed="13.89" length="5.06" shape="1504.07,294.05 1502.76,294.56 1501.96,295.36 1501.65,296.45 1501.85,297.83"/>
    </edge>
    <edge id=":1529101120_4" function="internal">
        <lane id=":1529101120_4_0" index="0" disallow="tram rail_urban rail rail_electric ship" speed="13.89" length="10.35" shape="1504.07,294.05 1501.19,294.33 1498.90,293.67 1497.19,292.10 1496.05,289.59"/>
    </edge>
    <edge id=":1529101120_5" function="internal">
        <lane id=":1529101120_5_0" index="0" disallow="tram rail_urban rail rail_electric ship" speed="13.89" length="4.82" shape="1504.07,294.05 1502.67,293.53 1502.08,292.82 1502.30,291.92 1503.32,290.84"/>
    </edge>
    <edge id=":1529101120_6" function="internal">
        <lane id=":1529101120_6_0" index="0" disallow="tram rail_urban rail rail_electric ship" speed="13.89" length="5.21" shape="1499.22,288.69 1499.79,289.91 1500.66,290.68 1501.84,290.99 1503.32,290.84"/>
    </edge>
    <edge id=":1529101120_7" function="internal">
        <lane id=":1529101120_7_0" index="0" disallow="tram rail_urban rail rail_electric ship" speed="13.89" length="9.51" shape="1499.22,288.69 1501.85,297.83"/>
    </edge>
    <edge id=":1529101120_8" function="internal">
        <lane id=":1529101120_8_0" index="0" disallow="tram rail_urban rail rail_electric ship" speed="13.89" length="2.41" shape="1499.22,288.69 1498.77,290.11 1498.09,290.73"/>
    </edge>
    <edge id=":1529101120_11" function="internal">
        <lane id=":1529101120_11_0" index="0" speed="13.89" length="2.41" shape="1498.09,290.73 1497.18,290.56 1496.05,289.59"/>
    </edge>
    <edge id=":1529101161_0" function="internal">
        <lane id=":1529101161_0_0" index="0" disallow="tram rail_urban rail rail_electric ship" speed="13.89" length="5.17" shape="1147.06,1095.81 1145.71,1095.81 1144.65,1096.27 1143.88,1097.19 1143.39,1098.57"/>
    </edge>
    <edge id=":1529101161_1" function="internal">
        <lane id=":1529101161_1_0" index="0" disallow="tram rail_urban rail rail_electric ship" speed="13.89" length="9.47" shape="1147.06,1095.81 1137.72,1094.23"/>
    </edge>
    <edge id=":1529101161_2" function="internal">
        <lane id=":1529101161_2_0" index="0" disallow="tram rail_urban rail rail_electric ship" speed="13.89" length="2.41" shape="1147.06,1095.81 1145.96,1094.81 1145.68,1093.93"/>
    </edge>
    <edge id=":1529101161_9" function="internal">
        <lane id=":1529101161_9_0" index="0" speed="13.89" length="2.41" shape="1145.68,1093.93 1146.22,1093.17 1147.57,1092.55"/>
    </edge>
    <edge id=":1529101161_3" function="internal">
        <lane id=":1529101161_3_0" index="0" disallow="tram rail_urban rail rail_electric ship" speed="13.89" length="9.39" shape="1138.31,1090.98 1147.57,1092.55"/>
    </edge>
    <edge id=":1529101161_4" function="internal">
        <lane id=":1529101161_4_0" index="0" disallow="tram rail_urban rail rail_electric ship" speed="13.89" length="5.24" shape="1138.31,1090.98 1141.05,1091.90 1142.80,1093.46"/>
    </edge>
    <edge id=":1529101161_5" function="internal">
        <lane id=":1529101161_5_0" index="0" disallow="tram rail_urban rail rail_electric ship" speed="13.89" length="2.41" shape="1138.31,1090.98 1139.38,1092.02 1139.64,1092.90"/>
    </edge>
    <edge id=":1529101161_10" function="internal">
        <lane id=":1529101161_10_0" index="0" speed="13.89" length="5.24" shape="1142.80,1093.46 1143.59,1095.69 1143.39,1098.57"/>
    </edge>
    <edge id=":1529101161_11" function="internal">
        <lane id=":1529101161_11_0" index="0" speed="13.89" length="2.41" shape="1139.64,1092.90 1139.08,1093.64 1137.72,1094.23"/>
    </edge>
    <edge id=":1529101161_6" function="internal">
        <lane id=":1529101161_6_0" index="0" disallow="tram rail_urban rail rail_electric ship" speed="13.89" length="5.04" shape="1140.16,1097.88 1140.26,1096.49 1139.88,1095.42 1139.04,1094.67 1137.72,1094.23"/>
    </edge>
    <edge id=":1529101161_7" function="internal">
        <lane id=":1529101161_7_0" index="0" disallow="tram rail_urban rail rail_electric ship" speed="13.89" length="10.28" shape="1140.16,1097.88 1141.13,1095.19 1142.68,1093.41 1144.83,1092.53 1147.57,1092.55"/>
    </edge>
    <edge id=":1529101161_8" function="internal">
        <lane id=":1529101161_8_0" index="0" disallow="tram rail_urban rail rail_electric ship" speed="13.89" length="4.82" shape="1140.16,1097.88 1141.23,1096.84 1142.12,1096.61 1142.84,1097.18 1143.39,1098.57"/>
    </edge>
    <edge id=":1529101165_0" function="internal">
        <lane id=":1529101165_0_0" index="0" disallow="tram rail_urban rail rail_electric ship" speed="13.89" length="2.47" shape="1503.98,176.37 1503.79,175.72 1503.44,175.28 1502.93,175.04 1502.26,175.00"/>
    </edge>
    <edge id=":1529101165_1" function="internal">
        <lane id=":1529101165_1_0" index="0" disallow="tram rail_urban rail rail_electric ship" speed="13.89" length="2.18" shape="1503.98,176.37 1504.62,175.02 1505.19,174.63"/>
    </edge>
    <edge id=":1529101165_4" function="internal">
        <lane id=":1529101165_4_0" index="0" speed="13.89" length="2.64" shape="1505.19,174.63 1505.37,174.50 1506.25,174.79 1507.24,175.90"/>
    </edge>
    <edge id=":1529101165_2" function="internal">
        <lane id=":1529101165_2_0" index="0" disallow="tram rail_urban rail rail_electric ship" speed="13.89" length="7.55" shape="1502.00,171.71 1504.04,171.83 1505.60,172.57 1506.67,173.92 1507.24,175.90"/>
    </edge>
    <edge id=":1529101165_3" function="internal">
        <lane id=":1529101165_3_0" index="0" disallow="tram rail_urban rail rail_electric ship" speed="13.89" length="2.81" shape="1502.00,171.71 1503.30,172.43 1503.77,173.22 1503.62,173.60"/>
    </edge>
    <edge id=":1529101165_5" function="internal">
        <lane id=":1529101165_5_0" index="0" speed="13.89" length="2.01" shape="1503.62,173.60 1503.43,174.08 1502.26,175.00"/>
    </edge>
    <edge id=":1529101192_0" function="internal">
        <lane id=":1529101192_0_0" index="0" disallow="tram rail_urban rail rail_electric ship" speed="27.78" length="9.58" shape="1373.58,1122.57 1372.32,1132.08"/>
        <lane id=":1529101192_0_1" index="1" disallow="tram rail_urban rail rail_electric ship" speed="27.78" length="9.58" shape="1370.30,1122.15 1369.05,1131.63"/>
    </edge>
    <edge id=":1529101192_2" function="internal">
        <lane id=":1529101192_2_0" index="0" disallow="tram rail_urban rail rail_electric ship" speed="20.84" length="4.53" shape="1370.30,1122.15 1369.35,1124.86 1368.09,1125.93"/>
    </edge>
    <edge id=":1529101192_3" function="internal">
        <lane id=":1529101192_3_0" index="0" disallow="tram rail_urban rail rail_electric ship" speed="27.78" length="2.41" shape="1370.30,1122.15 1369.33,1123.27 1368.46,1123.58"/>
    </edge>
    <edge id=":1529101192_11" function="internal">
        <lane id=":1529101192_11_0" index="0" speed="20.84" length="8.60" shape="1368.09,1125.93 1367.28,1126.62 1364.12,1127.42 1359.85,1127.26"/>
    </edge>
    <edge id=":1529101192_12" function="internal">
        <lane id=":1529101192_12_0" index="0" speed="27.78" length="2.41" shape="1368.46,1123.58 1367.69,1123.06 1367.03,1121.73"/>
    </edge>
    <edge id=":1529101192_4" function="internal">
        <lane id=":1529101192_4_0" index="0" disallow="tram rail_urban rail rail_electric ship" speed="20.84" length="5.01" shape="1360.28,1123.99 1361.66,1123.97 1362.69,1123.52 1363.39,1122.64 1363.76,1121.31"/>
    </edge>