<?xml version="1.0" encoding="UTF-8"?>

<!-- generated on Tue Jun 27 23:10:19 2017 by SUMO netconvert Version 0.28.0
<?xml version="1.0" encoding="UTF-8"?>

<configuration xmlns:xsi="http://www.w3.org/2001/XMLSchema-instance" xsi:noNamespaceSchemaLocation="http://sumo.dlr.de/xsd/netconvertConfiguration.xsd">

    <input>
        <osm-files value="bangalore.osm"/>
    </input>

    <output>
        <output-file value="bangalore.net.xml"/>
    </output>

    <projection>
        <proj.utm value="true"/>
    </projection>

</configuration>
-->

<net version="0.27" xmlns:xsi="http://www.w3.org/2001/XMLSchema-instance" xsi:noNamespaceSchemaLocation="http://sumo.dlr.de/xsd/net_file.xsd">

    <location netOffset="-784855.26,-1439150.67" convBoundary="0.00,0.00,2493.01,2379.33" origBoundary="77.626119,13.004828,77.649102,13.026314" projParameter="+proj=utm +zone=43 +ellps=WGS84 +datum=WGS84 +units=m +no_defs"/>

    <type id="highway.bridleway" priority="1" numLanes="1" speed="2.78" allow="pedestrian" oneway="1" width="2.00"/>
    <type id="highway.bus_guideway" priority="1" numLanes="1" speed="8.33" allow="bus" oneway="1"/>
    <type id="highway.cycleway" priority="1" numLanes="1" speed="5.56" allow="bicycle" oneway="0" width="1.00"/>
    <type id="highway.footway" priority="1" numLanes="1" speed="2.78" allow="pedestrian" oneway="1" width="2.00"/>
    <type id="highway.ford" priority="1" numLanes="1" speed="2.78" allow="army" oneway="0"/>
    <type id="highway.living_street" priority="3" numLanes="1" speed="2.78" disallow="tram rail_urban rail rail_electric ship" oneway="0"/>
    <type id="highway.motorway" priority="13" numLanes="2" speed="44.44" allow="private emergency authority army vip passenger hov taxi bus coach delivery truck trailer motorcycle evehicle custom1 custom2" oneway="1"/>
    <type id="highway.motorway_link" priority="12" numLanes="1" speed="22.22" allow="private emergency authority army vip passenger hov taxi bus coach delivery truck trailer motorcycle evehicle custom1 custom2" oneway="1"/>
    <type id="highway.path" priority="1" numLanes="1" speed="2.78" allow="bicycle pedestrian" oneway="1" width="2.00"/>
    <type id="highway.pedestrian" priority="1" numLanes="1" speed="2.78" allow="pedestrian" oneway="1" width="2.00"/>
    <type id="highway.primary" priority="9" numLanes="2" speed="27.78" disallow="tram rail_urban rail rail_electric ship" oneway="0"/>
    <type id="highway.primary_link" priority="8" numLanes="1" speed="22.22" disallow="tram rail_urban rail rail_electric ship" oneway="0"/>
    <type id="highway.raceway" priority="14" numLanes="2" speed="83.33" allow="vip" oneway="0"/>
    <type id="highway.residential" priority="4" numLanes="1" speed="13.89" disallow="tram rail_urban rail rail_electric ship" oneway="0"/>
    <type id="highway.secondary" priority="7" numLanes="2" speed="27.78" disallow="tram rail_urban rail rail_electric ship" oneway="0"/>
    <type id="highway.secondary_link" priority="6" numLanes="1" speed="22.22" disallow="tram rail_urban rail rail_electric ship" oneway="0"/>
    <type id="highway.service" priority="2" numLanes="1" speed="5.56" allow="delivery bicycle pedestrian" oneway="0"/>
    <type id="highway.services" priority="1" numLanes="1" speed="8.33" disallow="tram rail_urban rail rail_electric ship" oneway="0"/>
    <type id="highway.stairs" priority="1" numLanes="1" speed="1.39" allow="pedestrian" oneway="1" width="2.00"/>
    <type id="highway.step" priority="1" numLanes="1" speed="1.39" allow="pedestrian" oneway="1" width="2.00"/>
    <type id="highway.steps" priority="1" numLanes="1" speed="1.39" allow="pedestrian" oneway="1" width="2.00"/>
    <type id="highway.tertiary" priority="6" numLanes="1" speed="22.22" disallow="tram rail_urban rail rail_electric ship" oneway="0"/>
    <type id="highway.tertiary_link" priority="5" numLanes="1" speed="22.22" disallow="tram rail_urban rail rail_electric ship" oneway="0"/>
    <type id="highway.track" priority="1" numLanes="1" speed="5.56" disallow="tram rail_urban rail rail_electric ship" oneway="0"/>
    <type id="highway.trunk" priority="11" numLanes="2" speed="27.78" disallow="tram rail_urban rail rail_electric bicycle pedestrian ship" oneway="0"/>
    <type id="highway.trunk_link" priority="10" numLanes="1" speed="22.22" disallow="tram rail_urban rail rail_electric bicycle pedestrian ship" oneway="0"/>
    <type id="highway.unclassified" priority="5" numLanes="1" speed="13.89" disallow="tram rail_urban rail rail_electric ship" oneway="0"/>
    <type id="highway.unsurfaced" priority="1" numLanes="1" speed="8.33" disallow="tram rail_urban rail rail_electric ship" oneway="0"/>
    <type id="railway.light_rail" priority="15" numLanes="1" speed="27.78" allow="rail_urban" oneway="1"/>
    <type id="railway.preserved" priority="15" numLanes="1" speed="27.78" allow="rail" oneway="1"/>
    <type id="railway.rail" priority="15" numLanes="1" speed="83.33" allow="rail rail_electric" oneway="1"/>
    <type id="railway.subway" priority="15" numLanes="1" speed="27.78" allow="rail_urban" oneway="1"/>
    <type id="railway.tram" priority="15" numLanes="1" speed="13.89" allow="tram" oneway="1"/>

    <edge id=":1474877966_0" function="internal">
        <lane id=":1474877966_0_0" index="0" disallow="tram rail_urban rail rail_electric ship" speed="13.89" length="5.40" shape="822.94,1199.37 822.43,1198.08 821.56,1197.28 820.34,1196.97 818.77,1197.14"/>
    </edge>
    <edge id=":1474877966_1" function="internal">
        <lane id=":1474877966_1_0" index="0" disallow="tram rail_urban rail rail_electric ship" speed="13.89" length="9.79" shape="822.94,1199.37 822.30,1196.53 821.77,1194.61 821.10,1192.74 820.02,1190.04"/>
    </edge>
    <edge id=":1474877966_2" function="internal">
        <lane id=":1474877966_2_0" index="0" disallow="tram rail_urban rail rail_electric ship" speed="13.89" length="2.30" shape="822.94,1199.37 823.48,1197.98 824.11,1197.47"/>
    </edge>
    <edge id=":1474877966_9" function="internal">
        <lane id=":1474877966_9_0" index="0" speed="13.89" length="2.52" shape="824.11,1197.47 824.20,1197.40 825.09,1197.63 826.16,1198.66"/>
    </edge>
    <edge id=":1474877966_3" function="internal">
        <lane id=":1474877966_3_0" index="0" disallow="tram rail_urban rail rail_electric ship" speed="13.89" length="10.32" shape="823.08,1188.81 826.16,1198.66"/>
    </edge>
    <edge id=":1474877966_4" function="internal">
        <lane id=":1474877966_4_0" index="0" disallow="tram rail_urban rail rail_electric ship" speed="13.89" length="5.56" shape="823.08,1188.81 823.82,1191.83 823.35,1194.23"/>
    </edge>
    <edge id=":1474877966_5" function="internal">
        <lane id=":1474877966_5_0" index="0" disallow="tram rail_urban rail rail_electric ship" speed="13.89" length="2.41" shape="823.08,1188.81 822.77,1190.26 822.16,1190.95"/>
    </edge>
    <edge id=":1474877966_10" function="internal">
        <lane id=":1474877966_10_0" index="0" speed="13.89" length="5.56" shape="823.35,1194.23 821.66,1196.00 818.77,1197.14"/>
    </edge>
    <edge id=":1474877966_11" function="internal">
        <lane id=":1474877966_11_0" index="0" speed="13.89" length="2.41" shape="822.16,1190.95 821.24,1190.88 820.02,1190.04"/>
    </edge>
    <edge id=":1474877966_6" function="internal">
        <lane id=":1474877966_6_0" index="0" disallow="tram rail_urban rail rail_electric ship" speed="13.89" length="5.19" shape="818.00,1193.93 819.36,1193.40 820.14,1192.57 820.36,1191.45 820.02,1190.04"/>
    </edge>
    <edge id=":1474877966_7" function="internal">
        <lane id=":1474877966_7_0" index="0" disallow="tram rail_urban rail rail_electric ship" speed="13.89" length="10.79" shape="818.00,1193.93 821.05,1193.62 823.43,1194.31 825.13,1195.99 826.16,1198.66"/>
    </edge>
    <edge id=":1474877966_8" function="internal">
        <lane id=":1474877966_8_0" index="0" disallow="tram rail_urban rail rail_electric ship" speed="13.89" length="4.82" shape="818.00,1193.93 819.40,1194.45 819.99,1195.16 819.78,1196.05 818.77,1197.14"/>
    </edge>
    <edge id=":1474877970_0" function="internal">
        <lane id=":1474877970_0_0" index="0" disallow="tram rail_urban rail rail_electric ship" speed="13.89" length="9.49" shape="557.25,1344.38 548.06,1346.78"/>
    </edge>
    <edge id=":1474877970_1" function="internal">
        <lane id=":1474877970_1_0" index="0" disallow="tram rail_urban rail rail_electric ship" speed="13.89" length="5.07" shape="557.25,1344.38 554.52,1344.67 552.29,1344.00"/>
    </edge>
    <edge id=":1474877970_2" function="internal">
        <lane id=":1474877970_2_0" index="0" disallow="tram rail_urban rail rail_electric ship" speed="13.89" length="2.41" shape="557.25,1344.38 555.84,1343.89 555.24,1343.20"/>
    </edge>
    <edge id=":1474877970_9" function="internal">
        <lane id=":1474877970_9_0" index="0" speed="13.89" length="5.26" shape="552.29,1344.00 550.57,1342.36 549.35,1339.75"/>
    </edge>
    <edge id=":1474877970_10" function="internal">
        <lane id=":1474877970_10_0" index="0" speed="13.89" length="2.41" shape="555.24,1343.20 555.43,1342.30 556.42,1341.19"/>
    </edge>
    <edge id=":1474877970_3" function="internal">
        <lane id=":1474877970_3_0" index="0" disallow="tram rail_urban rail rail_electric ship" speed="13.89" length="5.20" shape="552.50,1338.76 553.12,1340.11 553.98,1340.96 555.08,1341.32 556.42,1341.19"/>
    </edge>
    <edge id=":1474877970_4" function="internal">
        <lane id=":1474877970_4_0" index="0" disallow="tram rail_urban rail rail_electric ship" speed="13.89" length="10.56" shape="552.50,1338.76 552.97,1341.64 552.38,1343.93 550.75,1345.65 548.06,1346.78"/>
    </edge>
    <edge id=":1474877970_5" function="internal">
        <lane id=":1474877970_5_0" index="0" disallow="tram rail_urban rail rail_electric ship" speed="13.89" length="4.82" shape="552.50,1338.76 552.08,1340.19 551.42,1340.83 550.51,1340.68 549.35,1339.75"/>
    </edge>
    <edge id=":1474877970_6" function="internal">
        <lane id=":1474877970_6_0" index="0" disallow="tram rail_urban rail rail_electric ship" speed="13.89" length="5.06" shape="547.23,1343.59 548.51,1343.04 549.29,1342.22 549.57,1341.12 549.35,1339.75"/>
    </edge>
    <edge id=":1474877970_7" function="internal">
        <lane id=":1474877970_7_0" index="0" disallow="tram rail_urban rail rail_electric ship" speed="13.89" length="9.50" shape="547.23,1343.59 556.42,1341.19"/>
    </edge>
    <edge id=":1474877970_8" function="internal">
        <lane id=":1474877970_8_0" index="0" disallow="tram rail_urban rail rail_electric ship" speed="13.89" length="2.41" shape="547.23,1343.59 548.63,1344.07 549.24,1344.76"/>
    </edge>
    <edge id=":1474877970_11" function="internal">
        <lane id=":1474877970_11_0" index="0" speed="13.89" length="2.41" shape="549.24,1344.76 549.05,1345.67 548.06,1346.78"/>
    </edge>
    <edge id=":1474877971_0" function="internal">
        <lane id=":1474877971_0_0" index="0" disallow="tram rail_urban rail rail_electric ship" speed="13.89" length="9.50" shape="540.73,1312.17 537.89,1303.10"/>
    </edge>
    <edge id=":1474877971_1" function="internal">
        <lane id=":1474877971_1_0" index="0" disallow="tram rail_urban rail rail_electric ship" speed="13.89" length="5.25" shape="540.73,1312.17 540.27,1309.31 540.84,1307.03"/>
    </edge>
    <edge id=":1474877971_2" function="internal">
        <lane id=":1474877971_2_0" index="0" disallow="tram rail_urban rail rail_electric ship" speed="13.89" length="2.41" shape="540.73,1312.17 541.15,1310.74 541.81,1310.10"/>
    </edge>
    <edge id=":1474877971_9" function="internal">
        <lane id=":1474877971_9_0" index="0" speed="13.89" length="5.25" shape="540.84,1307.03 542.46,1305.31 545.11,1304.15"/>
    </edge>
    <edge id=":1474877971_10" function="internal">
        <lane id=":1474877971_10_0" index="0" speed="13.89" length="2.41" shape="541.81,1310.10 542.72,1310.25 543.88,1311.18"/>
    </edge>
    <edge id=":1474877971_3" function="internal">
        <lane id=":1474877971_3_0" index="0" disallow="tram rail_urban rail rail_electric ship" speed="13.89" length="5.04" shape="545.98,1307.33 544.71,1307.89 543.93,1308.71 543.66,1309.81 543.88,1311.18"/>
    </edge>
    <edge id=":1474877971_4" function="internal">
        <lane id=":1474877971_4_0" index="0" disallow="tram rail_urban rail rail_electric ship" speed="13.89" length="10.33" shape="545.98,1307.33 543.14,1307.71 540.85,1307.13 539.10,1305.59 537.89,1303.10"/>
    </edge>
    <edge id=":1474877971_5" function="internal">
        <lane id=":1474877971_5_0" index="0" disallow="tram rail_urban rail rail_electric ship" speed="13.89" length="4.82" shape="545.98,1307.33 544.57,1306.87 543.95,1306.18 544.13,1305.28 545.11,1304.15"/>
    </edge>
    <edge id=":1474877971_6" function="internal">
        <lane id=":1474877971_6_0" index="0" disallow="tram rail_urban rail rail_electric ship" speed="13.89" length="5.15" shape="541.04,1302.11 541.64,1303.33 542.51,1304.08 543.67,1304.35 545.11,1304.15"/>
    </edge>
    <edge id=":1474877971_7" function="internal">
        <lane id=":1474877971_7_0" index="0" disallow="tram rail_urban rail rail_electric ship" speed="13.89" length="9.50" shape="541.04,1302.11 543.88,1311.18"/>
    </edge>
    <edge id=":1474877971_8" function="internal">
        <lane id=":1474877971_8_0" index="0" disallow="tram rail_urban rail rail_electric ship" speed="13.89" length="2.41" shape="541.04,1302.11 540.62,1303.54 539.96,1304.18"/>
    </edge>
    <edge id=":1474877971_11" function="internal">
        <lane id=":1474877971_11_0" index="0" speed="13.89" length="2.41" shape="539.96,1304.18 539.05,1304.03 537.89,1303.10"/>
    </edge>
    <edge id=":1474877972_0" function="internal">
        <lane id=":1474877972_0_0" index="0" disallow="tram rail_urban rail rail_electric ship" speed="13.89" length="5.00" shape="830.97,1233.23 830.34,1232.05 829.47,1231.32 828.35,1231.04 826.99,1231.22"/>
    </edge>
    <edge id=":1474877972_1" function="internal">
        <lane id=":1474877972_1_0" index="0" disallow="tram rail_urban rail rail_electric ship" speed="13.89" length="9.30" shape="830.97,1233.23 828.42,1224.29"/>
    </edge>
    <edge id=":1474877972_2" function="internal">
        <lane id=":1474877972_2_0" index="0" disallow="tram rail_urban rail rail_electric ship" speed="13.89" length="2.57" shape="830.97,1233.23 831.33,1231.78 831.97,1231.12 832.13,1231.14"/>
    </edge>
    <edge id=":1474877972_9" function="internal">
        <lane id=":1474877972_9_0" index="0" speed="13.89" length="2.25" shape="832.13,1231.14 832.88,1231.23 834.08,1232.12"/>
    </edge>
    <edge id=":1474877972_3" function="internal">
        <lane id=":1474877972_3_0" index="0" disallow="tram rail_urban rail rail_electric ship" speed="13.89" length="8.88" shape="831.64,1223.58 834.08,1232.12"/>
    </edge>
    <edge id=":1474877972_4" function="internal">
        <lane id=":1474877972_4_0" index="0" disallow="tram rail_urban rail rail_electric ship" speed="13.89" length="4.80" shape="831.64,1223.58 831.85,1226.32 831.22,1228.27"/>
    </edge>
    <edge id=":1474877972_5" function="internal">
        <lane id=":1474877972_5_0" index="0" disallow="tram rail_urban rail rail_electric ship" speed="13.89" length="2.41" shape="831.64,1223.58 831.10,1224.97 830.38,1225.55"/>
    </edge>
    <edge id=":1474877972_10" function="internal">
        <lane id=":1474877972_10_0" index="0" speed="13.89" length="5.30" shape="831.22,1228.27 831.14,1228.51 829.52,1230.14 826.99,1231.22"/>
    </edge>
    <edge id=":1474877972_11" function="internal">
        <lane id=":1474877972_11_0" index="0" speed="13.89" length="2.41" shape="830.38,1225.55 829.49,1225.32 828.42,1224.29"/>
    </edge>
    <edge id=":1474877972_6" function="internal">
        <lane id=":1474877972_6_0" index="0" disallow="tram rail_urban rail rail_electric ship" speed="13.89" length="4.95" shape="826.14,1228.03 827.38,1227.50 828.17,1226.70 828.52,1225.63 828.42,1224.29"/>
    </edge>
    <edge id=":1474877972_7" function="internal">
        <lane id=":1474877972_7_0" index="0" disallow="tram rail_urban rail rail_electric ship" speed="13.89" length="10.01" shape="826.14,1228.03 828.85,1227.69 831.08,1228.26 832.82,1229.74 834.08,1232.12"/>
    </edge>
    <edge id=":1474877972_8" function="internal">
        <lane id=":1474877972_8_0" index="0" disallow="tram rail_urban rail rail_electric ship" speed="13.89" length="4.82" shape="826.14,1228.03 827.54,1228.51 828.16,1229.20 827.97,1230.10 826.99,1231.22"/>
    </edge>
    <edge id=":1474877973_0" function="internal">
        <lane id=":1474877973_0_0" index="0" disallow="tram rail_urban rail rail_electric ship" speed="13.89" length="5.58" shape="845.82,1273.64 845.05,1272.60 843.99,1271.98 842.62,1271.80 840.96,1272.04"/>
    </edge>
    <edge id=":1474877973_1" function="internal">
        <lane id=":1474877973_1_0" index="0" disallow="tram rail_urban rail rail_electric ship" speed="13.89" length="9.38" shape="845.82,1273.64 842.23,1264.97"/>
    </edge>
    <edge id=":1474877973_2" function="internal">
        <lane id=":1474877973_2_0" index="0" disallow="tram rail_urban rail rail_electric ship" speed="13.89" length="2.57" shape="845.82,1273.64 846.01,1272.17 846.58,1271.43 846.74,1271.44"/>
    </edge>
    <edge id=":1474877973_9" function="internal">
        <lane id=":1474877973_9_0" index="0" speed="13.89" length="2.25" shape="846.74,1271.44 847.50,1271.44 848.78,1272.19"/>
    </edge>
    <edge id=":1474877973_3" function="internal">
        <lane id=":1474877973_3_0" index="0" disallow="tram rail_urban rail rail_electric ship" speed="13.89" length="9.01" shape="845.34,1263.87 848.78,1272.19"/>
    </edge>
    <edge id=":1474877973_4" function="internal">
        <lane id=":1474877973_4_0" index="0" disallow="tram rail_urban rail rail_electric ship" speed="13.89" length="4.94" shape="845.34,1263.87 845.93,1266.81 845.50,1268.70"/>
    </edge>
    <edge id=":1474877973_5" function="internal">
        <lane id=":1474877973_5_0" index="0" disallow="tram rail_urban rail rail_electric ship" speed="13.89" length="2.41" shape="845.34,1263.87 844.98,1265.31 844.34,1265.97"/>
    </edge>
    <edge id=":1474877973_10" function="internal">
        <lane id=":1474877973_10_0" index="0" speed="13.89" length="5.88" shape="845.50,1268.70 845.40,1269.16 843.74,1270.90 840.96,1272.04"/>
    </edge>
    <edge id=":1474877973_11" function="internal">
        <lane id=":1474877973_11_0" index="0" speed="13.89" length="2.41" shape="844.34,1265.97 843.42,1265.86 842.23,1264.97"/>
    </edge>
    <edge id=":1474877973_6" function="internal">
        <lane id=":1474877973_6_0" index="0" disallow="tram rail_urban rail rail_electric ship" speed="13.89" length="5.12" shape="840.16,1268.83 841.48,1268.30 842.26,1267.47 842.51,1266.36 842.23,1264.97"/>
    </edge>
    <edge id=":1474877973_7" function="internal">
        <lane id=":1474877973_7_0" index="0" disallow="tram rail_urban rail rail_electric ship" speed="13.89" length="10.12" shape="840.16,1268.83 843.03,1268.46 845.43,1268.90 847.34,1270.14 848.78,1272.19"/>
    </edge>
    <edge id=":1474877973_8" function="internal">
        <lane id=":1474877973_8_0" index="0" disallow="tram rail_urban rail rail_electric ship" speed="13.89" length="4.82" shape="840.16,1268.83 841.56,1269.33 842.16,1270.03 841.96,1270.94 840.96,1272.04"/>
    </edge>
    <edge id=":1474877976_0" function="internal">
        <lane id=":1474877976_0_0" index="0" disallow="tram rail_urban rail rail_electric ship" speed="13.89" length="4.82" shape="389.93,1388.23 388.53,1387.75 387.92,1387.05 388.11,1386.15 389.10,1385.04"/>
    </edge>
    <edge id=":1486984153_0" function="internal">
        <lane id=":1486984153_0_0" index="0" disallow="tram rail_urban rail rail_electric ship" speed="13.89" length="4.82" shape="1795.45,449.06 1796.27,447.82 1797.09,447.40 1797.92,447.80 1798.75,449.03"/>
    </edge>
    <edge id=":1486984184_0" function="internal">
        <lane id=":1486984184_0_0" index="0" disallow="tram rail_urban rail rail_electric ship" speed="13.89" length="4.82" shape="1798.07,653.95 1797.24,655.18 1796.41,655.60 1795.59,655.18 1794.77,653.94"/>
    </edge>
    <edge id=":1600963062_0" function="internal">
        <lane id=":1600963062_0_0" index="0" disallow="tram rail_urban rail rail_electric ship" speed="22.22" length="4.82" shape="1855.12,2148.89 1854.33,2150.15 1853.52,2150.58 1852.68,2150.19 1851.82,2148.98"/>
    </edge>
    <edge id=":1791639577_0" function="internal">
        <lane id=":1791639577_0_0" index="0" disallow="tram rail_urban rail rail_electric ship" speed="18.05" length="7.00" shape="1841.24,655.93 1838.95,656.45 1837.23,657.18 1836.09,658.13 1835.54,659.30"/>
    </edge>
    <edge id=":1791639577_1" function="internal">
        <lane id=":1791639577_1_0" index="0" disallow="tram rail_urban rail rail_electric ship" speed="18.05" length="12.65" shape="1841.24,655.93 1837.54,656.00 1835.20,654.81 1834.22,652.38 1834.60,648.70"/>
    </edge>
    <edge id=":1791639577_2" function="internal">
        <lane id=":1791639577_2_0" index="0" disallow="tram rail_urban rail rail_electric ship" speed="13.89" length="4.82" shape="1841.24,655.93 1839.89,655.31 1839.36,654.56 1839.64,653.68 1840.73,652.67"/>
    </edge>
    <edge id=":1791639577_3" function="internal">
        <lane id=":1791639577_3_0" index="0" disallow="tram rail_urban rail rail_electric ship" speed="18.05" length="5.57" shape="1837.81,649.49 1837.64,651.11 1838.07,652.18 1839.10,652.70 1840.73,652.67"/>
    </edge>
    <edge id=":1791639577_4" function="internal">
        <lane id=":1791639577_4_0" index="0" disallow="tram rail_urban rail rail_electric ship" speed="22.22" length="10.07" shape="1837.81,649.49 1835.54,659.30"/>
    </edge>
    <edge id=":1791639577_5" function="internal">
        <lane id=":1791639577_5_0" index="0" disallow="tram rail_urban rail rail_electric ship" speed="22.22" length="2.41" shape="1837.81,649.49 1836.71,650.49 1835.81,650.70"/>
    </edge>
    <edge id=":1791639577_9" function="internal">
        <lane id=":1791639577_9_0" index="0" speed="22.22" length="2.41" shape="1835.81,650.70 1835.11,650.10 1834.60,648.70"/>
    </edge>
    <edge id=":1791639577_6" function="internal">
        <lane id=":1791639577_6_0" index="0" disallow="tram rail_urban rail rail_electric ship" speed="22.22" length="10.20" shape="1832.31,658.64 1834.60,648.70"/>
    </edge>
    <edge id=":1791639577_7" function="internal">
        <lane id=":1791639577_7_0" index="0" disallow="tram rail_urban rail rail_electric ship" speed="18.05" length="4.77" shape="1832.31,658.64 1833.20,656.47 1834.91,654.75"/>
    </edge>
    <edge id=":1791639577_8" function="internal">
        <lane id=":1791639577_8_0" index="0" disallow="tram rail_urban rail rail_electric ship" speed="22.22" length="2.41" shape="1832.31,658.64 1833.36,657.59 1834.26,657.35"/>
    </edge>
    <edge id=":1791639577_10" function="internal">
        <lane id=":1791639577_10_0" index="0" speed="18.05" length="6.22" shape="1834.91,654.75 1837.42,653.48 1840.73,652.67"/>
    </edge>
    <edge id=":1791639577_11" function="internal">
        <lane id=":1791639577_11_0" index="0" speed="22.22" length="2.41" shape="1834.26,657.35 1834.98,657.92 1835.54,659.30"/>
    </edge>
    <edge id=":1791639606_0" function="internal">
        <lane id=":1791639606_0_0" index="0" disallow="tram rail_urban rail rail_electric ship" speed="13.89" length="11.73" shape="1538.69,683.38 1535.46,683.09 1532.84,683.04 1530.22,683.19 1526.98,683.47"/>
    </edge>
    <edge id=":1791639606_1" function="internal">
        <lane id=":1791639606_1_0" index="0" disallow="tram rail_urban rail rail_electric ship" speed="13.89" length="4.49" shape="1538.69,683.38 1535.94,682.58 1534.55,681.73"/>
    </edge>
    <edge id=":1791639606_2" function="internal">
        <lane id=":1791639606_2_0" index="0" disallow="tram rail_urban rail rail_electric ship" speed="13.89" length="3.66" shape="1538.69,683.38 1536.00,682.35 1535.53,681.72"/>
    </edge>
    <edge id=":1791639606_3" function="internal">
        <lane id=":1791639606_3_0" index="0" disallow="tram rail_urban rail rail_electric ship" speed="13.89" length="2.23" shape="1538.69,683.38 1537.55,682.41 1537.30,681.71"/>
    </edge>
    <edge id=":1791639606_16" function="internal">
        <lane id=":1791639606_16_0" index="0" speed="13.89" length="10.55" shape="1534.55,681.73 1533.08,680.82 1530.11,678.11 1527.03,674.43"/>
    </edge>
    <edge id=":1791639606_17" function="internal">
        <lane id=":1791639606_17_0" index="0" speed="13.89" length="10.88" shape="1535.53,681.72 1534.26,680.00 1533.45,676.34 1533.59,671.36"/>
    </edge>
    <edge id=":1791639606_18" function="internal">
        <lane id=":1791639606_18_0" index="0" speed="13.89" length="2.58" shape="1537.30,681.71 1537.24,681.55 1537.74,680.77 1539.07,680.10"/>
    </edge>
    <edge id=":1791639606_4" function="internal">
        <lane id=":1791639606_4_0" index="0" disallow="tram rail_urban rail rail_electric ship" speed="13.89" length="9.38" shape="1536.88,671.71 1536.69,675.25 1536.99,677.82 1537.78,679.44 1539.07,680.10"/>
    </edge>
    <edge id=":1791639606_5" function="internal">
        <lane id=":1791639606_5_0" index="0" disallow="tram rail_urban rail rail_electric ship" speed="13.89" length="16.82" shape="1536.88,671.71 1535.81,676.57 1533.81,680.15 1530.86,682.45 1526.98,683.47"/>
    </edge>
    <edge id=":1791639606_6" function="internal">
        <lane id=":1791639606_6_0" index="0" disallow="tram rail_urban rail rail_electric ship" speed="13.89" length="16.98" shape="1536.88,671.71 1535.70,677.06 1533.66,679.29 1530.77,678.41 1527.03,674.43"/>
    </edge>
    <edge id=":1791639606_7" function="internal">
        <lane id=":1791639606_7_0" index="0" disallow="tram rail_urban rail rail_electric ship" speed="13.89" length="4.82" shape="1536.88,671.71 1535.92,672.86 1535.06,673.18 1534.28,672.68 1533.59,671.36"/>
    </edge>
    <edge id=":1791639606_8" function="internal">
        <lane id=":1791639606_8_0" index="0" disallow="tram rail_urban rail rail_electric ship" speed="13.89" length="6.78" shape="1529.66,672.44 1531.16,674.03 1532.31,674.38 1533.12,673.49 1533.59,671.36"/>
    </edge>
    <edge id=":1791639606_9" function="internal">
        <lane id=":1791639606_9_0" index="0" disallow="tram rail_urban rail rail_electric ship" speed="13.89" length="12.39" shape="1529.66,672.44 1532.28,675.62 1534.72,677.95 1536.99,679.45 1539.07,680.10"/>
    </edge>
    <edge id=":1791639606_10" function="internal">
        <lane id=":1791639606_10_0" index="0" disallow="tram rail_urban rail rail_electric ship" speed="13.89" length="15.58" shape="1529.66,672.44 1532.36,676.93 1532.81,680.27 1531.02,682.44 1526.98,683.47"/>
    </edge>
    <edge id=":1791639606_11" function="internal">
        <lane id=":1791639606_11_0" index="0" disallow="tram rail_urban rail rail_electric ship" speed="13.89" length="4.82" shape="1529.66,672.44 1529.75,673.93 1529.34,674.75 1528.43,674.92 1527.03,674.43"/>
    </edge>
    <edge id=":1791639606_12" function="internal">
        <lane id=":1791639606_12_0" index="0" disallow="tram rail_urban rail rail_electric ship" speed="13.89" length="7.63" shape="1526.70,680.18 1528.36,679.68 1528.97,678.55 1528.52,676.80 1527.03,674.43"/>
    </edge>
    <edge id=":1791639606_13" function="internal">
        <lane id=":1791639606_13_0" index="0" disallow="tram rail_urban rail rail_electric ship" speed="13.89" length="12.23" shape="1526.70,680.18 1529.38,679.43 1531.42,677.72 1532.83,675.02 1533.59,671.36"/>
    </edge>
    <edge id=":1791639606_14" function="internal">
        <lane id=":1791639606_14_0" index="0" disallow="tram rail_urban rail rail_electric ship" speed="13.89" length="12.37" shape="1526.70,680.18 1539.07,680.10"/>
    </edge>
    <edge id=":1791639606_15" function="internal">
        <lane id=":1791639606_15_0" index="0" disallow="tram rail_urban rail rail_electric ship" speed="13.89" length="2.41" shape="1526.70,680.18 1528.00,680.89 1528.49,681.68"/>
    </edge>
    <edge id=":1791639606_19" function="internal">
        <lane id=":1791639606_19_0" index="0" speed="13.89" length="2.41" shape="1528.49,681.68 1528.15,682.54 1526.98,683.47"/>
    </edge>
    <edge id=":1791639616_0" function="internal">
        <lane id=":1791639616_0_0" index="0" disallow="tram rail_urban rail rail_electric ship" speed="13.89" length="4.82" shape="1982.11,666.14 1983.43,666.82 1983.93,667.60 1983.61,668.46 1982.47,669.42"/>
    </edge>
    <edge id=":1791639617_0" function="internal">
        <lane id=":1791639617_0_0" index="0" disallow="tram rail_urban rail rail_electric ship" speed="18.05" length="6.21" shape="1833.73,689.27 1831.76,689.53 1830.27,690.10 1829.26,690.98 1828.74,692.16"/>
    </edge>
    <edge id=":1791639617_1" function="internal">
        <lane id=":1791639617_1_0" index="0" disallow="tram rail_urban rail rail_electric ship" speed="18.05" length="11.71" shape="1833.73,689.27 1830.41,688.96 1828.26,687.64 1827.29,685.32 1827.49,681.99"/>
    </edge>
    <edge id=":1791639617_2" function="internal">
        <lane id=":1791639617_2_0" index="0" disallow="tram rail_urban rail rail_electric ship" speed="13.89" length="4.82" shape="1833.73,689.27 1832.45,688.51 1832.00,687.70 1832.37,686.86 1833.57,685.97"/>
    </edge>
    <edge id=":1791639617_3" function="internal">
        <lane id=":1791639617_3_0" index="0" disallow="tram rail_urban rail rail_electric ship" speed="18.05" length="5.33" shape="1830.72,682.66 1830.63,684.17 1831.08,685.23 1832.05,685.83 1833.57,685.97"/>
    </edge>
    <edge id=":1791639617_4" function="internal">
        <lane id=":1791639617_4_0" index="0" disallow="tram rail_urban rail rail_electric ship" speed="22.22" length="9.71" shape="1830.72,682.66 1828.74,692.16"/>
    </edge>