<?xml version="1.0" encoding="UTF-8"?>

<!-- generated on Fri Jun 30 16:28:45 2017 by SUMO polyconvert Version 0.28.0
<?xml version="1.0" encoding="UTF-8"?>

<configuration xmlns:xsi="http://www.w3.org/2001/XMLSchema-instance" xsi:noNamespaceSchemaLocation="http://sumo.dlr.de/xsd/polyconvertConfiguration.xsd">

    <input>
        <net-file value="bangalore.net.xml"/>
        <osm-files value="bangalore.osm"/>
        <type-file value="typemap.xml"/>
    </input>

    <output>
        <output-file value="bangalore.poly.xml"/>
    </output>

    <processing>
        <poi-layer-offset value="5"/>
    </processing>

</configuration>
-->

<additional xmlns:xsi="http://www.w3.org/2001/XMLSchema-instance" xsi:noNamespaceSchemaLocation="http://sumo.dlr.de/xsd/additional_file.xsd">
    <location netOffset="-790575.90,-1441143.24" convBoundary="0.00,-0.00,632.91,1306.40" origBoundary="77.678924,13.022390,77.684794,13.034187" projParameter="+proj=utm +zone=43 +ellps=WGS84 +datum=WGS84 +units=m +no_defs"/>

    <poly id="386299614" type="building" color="255,230,230" fill="1" layer="-1.00" shape="186.31,475.64 185.53,447.21 167.75,447.70 168.55,476.13 186.31,475.64"/>
</additional>
