<?xml version="1.0" encoding="UTF-8"?>

<!-- generated on Tue Jun 27 23:10:26 2017 by SUMO duarouter Version 0.28.0
<?xml version="1.0" encoding="UTF-8"?>

<configuration xmlns:xsi="http://www.w3.org/2001/XMLSchema-instance" xsi:noNamespaceSchemaLocation="http://sumo.dlr.de/xsd/duarouterConfiguration.xsd">

    <input>
        <net-file value="bangalore.net.xml"/>
        <trip-files value="trips.trips.xml"/>
    </input>

    <output>
        <output-file value="bangalore.rou.xml"/>
    </output>

    <processing>
        <ignore-errors value="true"/>
    </processing>

    <time>
        <begin value="0"/>
        <end value="100.0"/>
    </time>

    <report>
        <no-warnings value="true"/>
        <no-step-log value="true"/>
    </report>

</configuration>
-->

<routes xmlns:xsi="http://www.w3.org/2001/XMLSchema-instance" xsi:noNamespaceSchemaLocation="http://sumo.dlr.de/xsd/routes_file.xsd">
    <vehicle id="0" depart="0.00">
        <route edges="-168712713#1 -168712741#2 -168712741#1 -168712741#0 -175063883#4 -175063883#3 -175063883#2 -175063883#1 -175063883#0 -38312869#9 -135400853#1 -135400853#0"/>
    </vehicle>
    <vehicle id="1" depart="1.00">
        <route edges="-31281116#0 30810593#11 30810593#12 30810593#13 30810593#14 30810593#15 30810593#16 30810593#17 30810593#18 30810593#19 30810593#20 30810593#21 30810593#22 30810593#23 -197731605#1"/>
    </vehicle>
    <vehicle id="2" depart="2.00">
        <route edges="38312870#6 -38312871#9 -38312871#8 -175063889#3 -175063889#2 -175063889#1 -175063889#0 -37786243#5 -37786243#4 -37786243#3 -37786243#2 -37786243#1 -37786243#0 -30810593#20 -175284889#2 -175284889#1 -175284889#0 175068172#4"/>
    </vehicle>
    <vehicle id="3" depart="3.00">
        <route edges="-168712757#0 -167807903#0 175063883#7 175063883#8 175063883#9 175063883#10 175063883#11 175063883#12 175063883#13 -30810593#29 -30810593#28 -30810593#27 -37785986#1 -175068166#5 -175068166#4 -175068166#3 -175068166#2 197731601"/>
    </vehicle>
    <vehicle id="4" depart="4.00">
        <route edges="-38312851#6 38312851#6 38312851#7 38312851#8 38312851#9 38312851#10 -37786243#5 -37786243#4 -37786243#3 -37786243#2 -37786243#1 -37786243#0 30810593#21 30810593#22 30810593#23 30810593#24 30810593#25 30810593#26 30810593#27 30810593#28 30810593#29 30810593#30 30810593#31 30810593#32 30810593#33 30810593#34 168712722"/>
    </vehicle>
    <vehicle id="5" depart="5.00">
        <route edges="-38421542#0 169722390#2 169722390#3 175068172#0 175068172#1 175068172#2 175068172#3 175068172#4 37785985#2 175068166#0 175068166#1 175068166#2 175068166#3 175068166#4 175068166#5 37785986#1 30810593#27 30810593#28 30810593#29 30810593#30 30810593#31 175068149#0 175068149#1 -175068149#1"/>
    </vehicle>
    <vehicle id="6" depart="6.00">
        <route edges="170338936 -30810593#29 -30810593#28 -30810593#27 -30810593#26 -30810593#25 -30810593#24 -30810593#23 -30810593#22 -30810593#21 37786243#0 37786243#1 37786243#2 37786243#3 37786243#4 37786243#5 37786243#6 37786243#7 37786243#8 37786243#9 37786243#10 37786243#11 -362292209#0 -361829849#4 -361829849#3 -37786326#8 37786326#8"/>
    </vehicle>
    <vehicle id="7" depart="7.00">
        <route edges="-197731575 197731575 -30810593#22 -30810593#21 37786243#0 37786243#1 168712753#1 168712753#2 168712753#3 168712753#4 168712753#5 168712753#6"/>
    </vehicle>
    <vehicle id="8" depart="8.00">
        <route edges="-46953071 46952990#4 -37786326#3 -37786326#2 -38415999#2 -38415999#1 46953019"/>
    </vehicle>
    <vehicle id="9" depart="9.00">
        <route edges="361829849#4 -361829849#4 -361829849#3 -361829849#2 -46953075"/>
    </vehicle>
    <vehicle id="10" depart="10.00">
        <route edges="-175284909#1 175284909#1 -37785911#2 175284924#0"/>
    </vehicle>
    <vehicle id="11" depart="11.00">
        <route edges="46953064 361829849#4 362292209#0 -37786243#11 -37786243#10 -37786243#9 -37786243#8 -37786243#7 -37786243#6 -37786243#5 -37786243#4 -37786243#3 -37786243#2 -37786243#1 -37786243#0 30810593#21 30810593#22 30810593#23 -197731605#1 -197731605#0"/>
    </vehicle>
    <vehicle id="12" depart="12.00">
        <route edges="143793373#3 -143793373#3 -143793373#2 -143793373#1 -143793373#0 37786326#8 361829849#3 361829849#4 362292209#0 -37786243#11 -37786243#10 -37786243#9 -37786243#8 -37786243#7 -37786243#6 -37786243#5 -37786243#4 -37786243#3 -37786243#2 -37786243#1 -37786243#0 30810593#21 30810593#22 30810593#23 30810593#24 30810593#25 30810593#26 30810593#27 30810593#28 30810593#29 30810593#30 30810593#31 30810593#32 30810593#33 30810593#34 30810593#35 30810593#36 30810593#37 30810593#38"/>
    </vehicle>
    <vehicle id="13" depart="13.00">
        <route edges="-38420112#0 30810593#10 30810593#11 30810593#12 -175284896#4 -175284896#3 175284899#0"/>
    </vehicle>
    <vehicle id="14" depart="14.00">
        <route edges="-175068149#2 -175068149#1 -175068149#0 -30810593#31 -30810593#30 -30810593#29 -30810593#28 -30810593#27 -30810593#26 -30810593#25 -30810593#24 -30810593#23 -30810593#22 -30810593#21 37786243#0 37786243#1 37786243#2 37786243#3 37786243#4 37786243#5 37786243#6 37786243#7 37786243#8 37786243#9 37786243#10 37786243#11 362292209#1 362292209#2 362292209#3 362292209#4 362292209#5 362292209#6 361829848#0 361829848#1 167807928"/>
    </vehicle>
    <vehicle id="15" depart="15.00">
        <route edges="141482733 -38415996#1 -38415996#0 31565210#3 31565210#4 31565297"/>
    </vehicle>
    <vehicle id="16" depart="16.00">
        <route edges="-31565210#2 31565210#2 31565210#3 31565210#4 38312851#0 38312851#1 38312851#2 38312851#3 38312851#4 38312851#5 38312851#6 38312851#7 38312851#8 38312851#9 38312851#10 175063889#0 168712731"/>
    </vehicle>
    <vehicle id="17" depart="17.00">
        <route edges="-38416004#2 38416004#2 38416004#3 38416004#4 38416004#5 38416004#6 31565210#1 31565210#2 31565210#3 31565210#4 38312851#0 38312851#1 38312851#2 38312851#3 38312851#4 38312851#5 38312851#6 38312851#7 38312851#8 38312851#9 38312851#10 -37786243#5 -37786243#4 -37786243#3 -37786243#2 -37786243#1 -37786243#0 30810593#21 30810593#22 30810593#23 30810593#24 30810593#25 30810593#26 30810593#27 30810593#28 30810593#29 30810593#30 30810593#31 30810593#32 30810593#33 30810593#34 30810593#35 30810593#36 30810593#37 30810593#38"/>
    </vehicle>
    <vehicle id="18" depart="18.00">
        <route edges="-46952989#0 143793373#6 143793373#7 143793375#0 143793375#1 46953113"/>
    </vehicle>
    <vehicle id="19" depart="19.00">
        <route edges="168712710#1 38312851#7 38312851#8 38312851#9 38312851#10 -37786243#5 -37786243#4 -37786243#3 -37786243#2 -37786243#1 -37786243#0 -30810593#20 -175284889#2 -175284889#1 -175284889#0 -175068172#3 -175068172#2 -175068172#1 -175068172#0 -169722390#3 175284896#0"/>
    </vehicle>
    <vehicle id="20" depart="20.00">
        <route edges="-141482733 37786326#2 37786326#3 37786326#4 -46953061#2 46953061#2"/>
    </vehicle>
    <vehicle id="21" depart="21.00">
        <route edges="-134102184 -175068180#0 134102182#1 -175068172#0 37785911#1 37785911#2 37785911#3 37785911#4 175284915#0 175284911 30810593#14 168716074 168712752#8"/>
    </vehicle>
    <vehicle id="22" depart="22.00">
        <route edges="37785985#3 37786243#0 37786243#1 37786243#2 37786243#3 37786243#4 37786243#5 37786243#6 37786243#7 37786243#8 37786243#9 37786243#10 37786243#11 -362292209#0 -361829849#4 -361829849#3 -361829849#2 -46953075 143793373#5 46952989#0"/>
    </vehicle>
    <vehicle id="23" depart="23.00">
        <route edges="-175068166#4 197731605#1 -30810593#23 -30810593#22 -30810593#21 37786243#0 37786243#1 37786243#2 37786243#3 37786243#4 37786243#5 37786243#6 37786243#7 37786243#8 -46953008#1"/>
    </vehicle>
    <vehicle id="24" depart="24.00">
        <route edges="-38312869#8 -38312869#7 -38312869#6 38312867#1 38312867#2 38312867#3 -46953009 46953009"/>
    </vehicle>
    <vehicle id="25" depart="25.00">
        <route edges="141482733 38415996#2 -38416001#1 -46952989#1 -46952989#0 -143793373#5 46953075 361829849#2 361829849#3 361829849#4 362292209#0 362292209#1 362292209#2 362292209#3"/>
    </vehicle>
    <vehicle id="26" depart="26.00">
        <route edges="-175068149#2 -175068149#1 -175068149#0 -30810593#31 -30810593#30 -30810593#29 -30810593#28 -30810593#27 -37785986#1 -175068166#5 -175068166#4 -175068166#3 -175068166#2 -175068166#1 -175068166#0 -37785985#2 -175068172#4 -175068172#3 -175068172#2 -175068172#1 -134102182#1"/>
    </vehicle>
    <vehicle id="27" depart="27.00">
        <route edges="30810593#11 30810593#12 30810593#13 30810593#14 30810593#15 30810593#16 30810593#17 30810593#18 30810593#19 30810593#20 30810593#21 30810593#22 30810593#23 30810593#24 30810593#25 30810593#26 30810593#27 30810593#28 30810593#29 -175063883#13 -175063883#12 168712681#1"/>
    </vehicle>
    <vehicle id="28" depart="28.00">
        <route edges="-168712735#3 168712735#3 -37786243#3 -37786243#2 -37786243#1 -37786243#0 -30810593#20 -175284889#2 -175284889#1 -175284889#0 -175068172#3 -175068172#2 -134102184 -175068180#0 134102182#1"/>
    </vehicle>
    <vehicle id="29" depart="29.00">
        <route edges="170338936 -30810593#29 -30810593#28 -30810593#27 -30810593#26 -30810593#25 -30810593#24 -30810593#23 -30810593#22 -30810593#21 -30810593#20 -30810593#19 -30810593#18 168716072 -168716072"/>
    </vehicle>
    <vehicle id="30" depart="30.00">
        <route edges="46953072 -46952990#2 -46952990#1 -46952990#0 -46952989#0 143793373#6 143793373#7 143793375#0 -46953111"/>
    </vehicle>
    <vehicle id="31" depart="31.00">
        <route edges="46953000#0 46953097#1 31565210#2 38415996#0 38415996#1 38415996#2 -38416001#1 -46952989#1 -46952989#0 -143793373#5 46953075 361829849#2 361829849#3 361829849#4 362292209#0 362292209#1 362292209#2 362292209#3 362292209#4 362292209#5 362292209#6 361829848#0 361829848#1 167807928"/>
    </vehicle>
    <vehicle id="32" depart="32.00">
        <route edges="46952992#0 46953097#0 46953097#1 31565210#2 38415996#0 38415996#1 38415996#2 -38416001#1 -46952989#1 -46952989#0 -143793373#5 46953075 361829849#2 361829849#3 -46953064"/>
    </vehicle>
    <vehicle id="33" depart="33.00">
        <route edges="38416002#2 -38416002#2 -38416002#1 38416004#2 38416004#3 38416004#4 38416004#5 38416004#6 31565210#1 31565210#2 31565210#3 31565210#4 38312851#0 38312851#1 38312851#2 38312851#3 38312851#4 38312851#5 38312851#6 38312851#7 38312851#8 38312851#9 38312851#10 -37786243#5 -37786243#4 -37786243#3 -37786243#2 -37786243#1 -37786243#0 30810593#21 30810593#22 30810593#23 30810593#24 30810593#25 30810593#26 -37785986#1 -37785986#0"/>
    </vehicle>
    <vehicle id="34" depart="34.00">
        <route edges="-168712700#0 -168712753#2 -168712753#1 37786243#2 37786243#3 37786243#4 37786243#5 175063889#0 175063889#1 175063889#2 175063889#3 38312871#8 38312871#9 38312871#10 38312868#3 -38312867#5"/>
    </vehicle>
    <vehicle id="35" depart="35.00">
        <route edges="-46952992#0 30810593#2 30810593#3 30810593#4 30810593#5 30810593#6 30810593#7 30810593#8 30810593#9 30810593#10 30810593#11 30810593#12 -175284896#4 -175284896#3 175284896#3"/>
    </vehicle>
    <vehicle id="36" depart="36.00">
        <route edges="143793373#6 -143793373#6 -143793373#5 46953075 361829849#2 361829849#3 361829849#4 362292209#0 -37786243#11 -37786243#10 -37786243#9 -37786243#8 -37786243#7 -37786243#6 175063889#0 175063889#1 175063889#2 175063889#3"/>
    </vehicle>
    <vehicle id="37" depart="37.00">
        <route edges="175284924#1 -31281116#2 -31281116#1 -31281116#0 30810593#11 30810593#12 30810593#13 30810593#14 30810593#15 30810593#16 30810593#17 30810593#18 30810593#19 30810593#20 37786243#0 37786243#1 37786243#2 37786243#3 -168712735#3 -168712735#2 -168712735#1 -168712735#0"/>
    </vehicle>
    <vehicle id="38" depart="38.00">
        <route edges="-168712741#1 -168712741#0 175063883#5 175063883#6 175063883#7 175063883#8 175063883#9 175063883#10 175063883#11 175063883#12 175063883#13 30810593#30 30810593#31 30810593#32 30810593#33 30810593#34 30810593#35 30810593#36 30810593#37 -170338939"/>
    </vehicle>
    <vehicle id="39" depart="39.00">
        <route edges="168712679#0 168712679#1 168712679#2 168712679#3 30810593#12 30810593#13 30810593#14 30810593#15 30810593#16 30810593#17 30810593#18 30810593#19 30810593#20 30810593#21 30810593#22 30810593#23 -197731605#1"/>
    </vehicle>
    <vehicle id="40" depart="40.00">
        <route edges="167808117 -30810593#31 -30810593#30 -30810593#29 -30810593#28 -30810593#27 -30810593#26 -30810593#25 -30810593#24 -30810593#23 -30810593#22 -30810593#21 -30810593#20 -30810593#19 -30810593#18 -30810593#17 -30810593#16 -30810593#15 168716074 168712752#8"/>
    </vehicle>
    <vehicle id="41" depart="41.00">
        <route edges="-30810593#38 -30810593#37 -30810593#36 -30810593#35 -30810593#34 -30810593#33 -30810593#32 -30810593#31 -30810593#30 -30810593#29 -30810593#28 -30810593#27 -37785986#1"/>
    </vehicle>
    <vehicle id="42" depart="42.00">
        <route edges="169722390#0 169722390#1 169722390#2 175284896#0 175284896#1 175284896#2 175284896#3 175284896#4 -30810593#12 -168712679#3 -168712679#2 -168712679#1 -31565297 -31565210#4 -31565210#3 -31565210#2 -31565210#1 -31565210#0"/>
    </vehicle>
    <vehicle id="43" depart="43.00">
        <route edges="-167807903#3 -167807903#2 -167807903#1 -167807903#0 175063883#7 168712735#0 168712733#0 168712733#1"/>
    </vehicle>
    <vehicle id="44" depart="44.00">
        <route edges="-168712691#0 168712691#0 168712691#1 37786243#3 37786243#4 37786243#5 37786243#6 37786243#7 37786243#8 37786243#9 37786243#10 37786243#11 -362292209#0 -361829849#4 -361829849#3 -361829849#2 -361829849#1 38416004#0 143793375#0 143793375#1 143793375#2"/>
    </vehicle>
    <vehicle id="45" depart="45.00">
        <route edges="361829849#0 38416004#0 38416004#1 38416004#2 38416004#3 38416004#4 38416004#5 38416004#6 31565210#1 -46953097#1 46953097#1"/>
    </vehicle>
    <vehicle id="46" depart="46.00">
        <route edges="362292209#0 -37786243#11 -37786243#10 -37786243#9 -37786243#8 -37786243#7 -37786243#6 -37786243#5 -37786243#4 -37786243#3 -37786243#2 -37786243#1 -37786243#0 30810593#21 30810593#22 30810593#23 30810593#24 30810593#25 30810593#26 30810593#27 30810593#28 30810593#29 30810593#30 30810593#31 30810593#32 30810593#33 -170338929#2 170338929#2"/>
    </vehicle>
    <vehicle id="47" depart="47.00">
        <route edges="175284889#2 30810593#20 30810593#21 30810593#22 30810593#23 30810593#24 30810593#25 30810593#26 30810593#27 30810593#28 30810593#29 -175063883#13 -175063883#12 -175063883#11 -175063883#10 -175063883#9 -175063883#8 -168712715#2"/>
    </vehicle>
    <vehicle id="48" depart="48.00">
        <route edges="-30810593#38 -30810593#37 -30810593#36 -30810593#35 -30810593#34 -30810593#33 -30810593#32 -30810593#31 -30810593#30 -30810593#29 -30810593#28 -30810593#27 -37785986#1 -175068166#5 -175068166#4 -175068166#3 197731575"/>
    </vehicle>
    <vehicle id="49" depart="49.00">
        <route edges="30810593#35 -30810593#35 -30810593#34 -30810593#33 -30810593#32 -30810593#31 -30810593#30 -30810593#29 -30810593#28 -30810593#27 -30810593#26 -30810593#25 -30810593#24 -30810593#23 -30810593#22 -30810593#21 -30810593#20 -30810593#19 -30810593#18 -30810593#17 -30810593#16 -30810593#15 -30810593#14 -30810593#13 -175284896#4 -175284896#3 -175284896#2 -175284896#1 175284924#1"/>
    </vehicle>
    <vehicle id="50" depart="50.00">
        <route edges="168712730#0 -168712735#9 -168712735#8 -168712735#7 -168712735#6 -168712735#5 -168712735#4 37786243#4 37786243#5 37786243#6 37786243#7 37786243#8 37786243#9 37786243#10 38312869#2 38312869#3 38312869#4 38312869#5 38312869#6 46953033"/>
    </vehicle>
    <vehicle id="51" depart="51.00">
        <route edges="46953014 -362292209#3 -362292209#2 -362292209#1 -37786243#11 -37786243#10 -37786243#9 -37786243#8 -37786243#7 38312868#0 38312868#1 38312868#2 -38312871#10 -38312871#9 -168712728#0"/>
    </vehicle>
    <vehicle id="52" depart="52.00">
        <route edges="38420112#0 -38420112#0 30810593#10 30810593#11 30810593#12 30810593#13 30810593#14 30810593#15 30810593#16 30810593#17 30810593#18 30810593#19 30810593#20 37786243#0 37786243#1 37786243#2 37786243#3 37786243#4 37786243#5 175063889#0 175063889#1 175063889#2 175063889#3 175063889#4 175063889#5 175063889#6 -175063883#5 -175063883#4 -175063883#3 -175063883#2"/>
    </vehicle>
    <vehicle id="53" depart="53.00">
        <route edges="30810593#2 30810593#3 30810593#4 30810593#5 30810593#6 30810593#7 30810593#8 30810593#9 30810593#10 30810593#11 30810593#12 30810593#13 30810593#14 30810593#15 30810593#16 30810593#17 30810593#18 30810593#19 30810593#20 30810593#21 30810593#22 30810593#23 30810593#24 30810593#25 30810593#26 30810593#27 30810593#28 170338934#1"/>
    </vehicle>
    <vehicle id="54" depart="54.00">
        <route edges="264140336#0 -264140336#0 30810593#4 30810593#5 30810593#6 30810593#7 30810593#8 30810593#9 30810593#10 30810593#11 30810593#12 30810593#13 30810593#14 30810593#15 30810593#16 30810593#17 30810593#18 30810593#19 30810593#20 37786243#0 37786243#1 37786243#2 37786243#3 37786243#4 37786243#5 -38312851#10 46953022"/>
    </vehicle>
    <vehicle id="55" depart="55.00">
        <route edges="175284915#1 175284896#4 -30810593#12 -30810593#11 -30810593#10 -30810593#9 -30810593#8 -30810593#7 -30810593#6 -30810593#5 -30810593#4 -30810593#3 -30810593#2"/>
    </vehicle>
    <vehicle id="56" depart="56.00">
        <route edges="-197731601 197731601 -30810593#21 37786243#0 37786243#1 37786243#2 37786243#3 37786243#4 37786243#5 175063889#0 175063889#1 175063889#2 175063889#3 175063889#4 175063889#5 175063889#6 -175063883#5 -175063883#4 -175063883#3 175063883#3"/>
    </vehicle>
    <vehicle id="57" depart="57.00">
        <route edges="168712735#2 46953021#1 46953021#2 46953021#3 46953021#4 46953021#5 46953021#6 30810593#24 30810593#25 30810593#26 30810593#27 30810593#28 30810593#29 30810593#30 170338940"/>
    </vehicle>
    <vehicle id="58" depart="58.00">
        <route edges="-46953061#0 46953061#0 46953061#1 46953061#2 -37786326#4 -46952990#4 -46952990#3 -46952990#2 -46952990#1 -46952990#0 46952989#1 38416001#1 -38415996#2 -141482733"/>
    </vehicle>
    <vehicle id="59" depart="59.00">
        <route edges="167807903#1 168712737 -168712741#1 -168712741#0 175063883#5 -175063889#6 -175063889#5 -175063889#4 38312871#8 38312871#9 38312871#10 38312868#3 -38312867#5 -46953032"/>
    </vehicle>
    <vehicle id="60" depart="60.00">
        <route edges="-38416002#3 -38416002#2 -38416002#1 38416004#2 38416004#3 38416004#4 38416004#5 38416004#6 31565210#1 31565210#2 31565210#3 31565210#4 31565297 168712679#1 168712679#2 168712679#3 30810593#12 30810593#13 -30810593#13"/>
    </vehicle>
    <vehicle id="61" depart="61.00">
        <route edges="-46953021#3 46953021#3 46953021#4 46953021#5 -168712752#4 -168712752#3 168712752#3"/>
    </vehicle>
    <vehicle id="62" depart="62.00">
        <route edges="-168712735#0 175063883#8 175063883#9 175063883#10 175063883#11 175063883#12 175063883#13 -30810593#29 -30810593#28 -30810593#27 -30810593#26 -30810593#25 -30810593#24 -30810593#23 -30810593#22 -30810593#21 -30810593#20 -30810593#19 -30810593#18 -30810593#17 -30810593#16 -30810593#15 -30810593#14 -30810593#13 -30810593#12 -30810593#11 -30810593#10 38420112#0 38420112#1 38420112#2 38420112#3 -38420222"/>
    </vehicle>
    <vehicle id="63" depart="63.00">
        <route edges="168712735#4 -168712735#4 37786243#4 37786243#5 37786243#6 37786243#7 37786243#8 46953061#0 46953061#1 46953061#2 -46953061#2"/>
    </vehicle>
    <vehicle id="64" depart="64.00">
        <route edges="168712729#1 -30810593#32 -30810593#31 -30810593#30 -30810593#29 -30810593#28 -30810593#27 -30810593#26 -30810593#25 -30810593#24 -30810593#23 -30810593#22 -30810593#21 -30810593#20 -30810593#19 -30810593#18 -30810593#17 -30810593#16 -30810593#15 -30810593#14 -30810593#13 -30810593#12 -30810593#11 -30810593#10 -30810593#9 -30810593#8 -30810593#7 -30810593#6 -30810593#5 -30810593#4 -30810593#3 -30810593#2 46952992#0"/>
    </vehicle>
    <vehicle id="65" depart="65.00">
        <route edges="-38312870#0 -38312869#7 46953033 -362292209#6 -362292209#5 -362292209#4 -362292209#3 -362292209#2 -362292209#1 -362292209#0 -361829849#4 -361829849#3 -37786326#8 143793373#0 143793373#1 46953072"/>
    </vehicle>
    <vehicle id="66" depart="66.00">
        <route edges="-46953018#0 37786326#6 37786326#7 143793373#0 143793373#1 143793373#2 143793373#3 143793373#4 143793373#5 143793373#6"/>
    </vehicle>
    <vehicle id="67" depart="67.00">
        <route edges="-46953096 38416004#5 38416004#6 31565210#1 31565210#2 31565210#3 31565210#4 38312851#0 38312851#1 38312851#2 38312851#3 38312851#4 38312851#5 38312851#6 38312851#7 38312851#8 38312851#9 38312851#10 -37786243#5 -37786243#4 -37786243#3 -37786243#2 -37786243#1 -37786243#0 30810593#21 30810593#22 30810593#23 30810593#24 30810593#25 30810593#26 30810593#27 30810593#28 30810593#29 -170338936"/>
    </vehicle>
    <vehicle id="68" depart="68.00">
        <route edges="-37785986#1 37785986#1 30810593#27 30810593#28 30810593#29 30810593#30 30810593#31 30810593#32 -168712729#1"/>
    </vehicle>
    <vehicle id="69" depart="69.00">
        <route edges="-175284896#2 -175284896#1 175284896#1"/>
    </vehicle>
    <vehicle id="70" depart="70.00">
        <route edges="37785986#0 37785986#1 -30810593#26 -30810593#25 -30810593#24 -30810593#23 -30810593#22 -30810593#21 37786243#0 37786243#1 37786243#2 37786243#3 37786243#4 37786243#5 37786243#6 37786243#7 37786243#8 37786243#9 37786243#10 38312869#2 38312869#3 38312869#4 38312869#5 38312869#6 -38312869#6"/>
    </vehicle>
    <vehicle id="71" depart="71.00">
        <route edges="46952992#0 46953097#0 46953097#1 31565210#2 31565210#3 31565210#4 38312851#0 38312851#1 38312851#2 38312851#3 38312851#4 38312851#5 38312851#6 38312851#7 38312851#8 38312851#9 38312851#10 37786243#6 37786243#7 37786243#8 37786243#9 37786243#10 38312869#2 38312869#3 38312869#4 -46953030"/>
    </vehicle>
    <vehicle id="72" depart="72.00">
        <route edges="-38312869#0 37786326#7 37786326#8 361829849#3 361829849#4 362292209#0 -37786243#11 -37786243#10 -37786243#9 -37786243#8 -37786243#7 -37786243#6 -37786243#5 -37786243#4 -37786243#3 -37786243#2 -37786243#1 -37786243#0 30810593#21 30810593#22 -197731575 -175068166#2"/>
    </vehicle>
    <vehicle id="73" depart="73.00">
        <route edges="46953020#1 -175063889#2 -175063889#1 -175063889#0 -37786243#5 -37786243#4 -37786243#3 -37786243#2 -37786243#1 -37786243#0 -30810593#20 -30810593#19 -30810593#18 -30810593#17 -30810593#16 -30810593#15 -30810593#14 -175284911 175284911"/>
    </vehicle>
    <vehicle id="74" depart="74.00">
        <route edges="175284909#1 37785911#3 37785911#4 175284915#0 175284911 -30810593#13 -30810593#12 -168712679#3 -168712679#2 -168712679#1 -31565297 -31565210#4 -31565210#3 -31565210#2 -31565210#1 -38416004#6 46953095#1"/>
    </vehicle>
    <vehicle id="75" depart="75.00">
        <route edges="30810593#0 30810593#1 30810593#2 30810593#3 30810593#4 30810593#5 30810593#6 30810593#7 30810593#8 30810593#9 30810593#10 30810593#11 30810593#12 30810593#13 30810593#14 30810593#15 30810593#16 30810593#17 30810593#18 30810593#19 30810593#20 30810593#21 30810593#22 30810593#23 30810593#24 30810593#25 30810593#26 30810593#27 30810593#28 30810593#29 30810593#30 30810593#31 175068149#0 -170338926#0"/>
    </vehicle>
    <vehicle id="76" depart="76.00">
        <route edges="-175063883#2 -175063883#1 -175063883#0 -38312869#9 -135400853#1 -361829848#0 -362292209#6 -362292209#5 -362292209#4 -362292209#3 -362292209#2 -362292209#1 -362292209#0 -361829849#4 -361829849#3 -37786326#8 -37786326#7 -37786326#6 -37786326#5 -37786326#4 -37786326#3 -37786326#2 141482733"/>
    </vehicle>
    <vehicle id="77" depart="77.00">
        <route edges="38416004#1 38416004#2 38416004#3 38416004#4 38416004#5 38416004#6 31565210#1 -46953097#1 -46953097#0 -46952992#0 30810593#2 30810593#3 30810593#4 30810593#5 30810593#6 30810593#7 30810593#8 30810593#9 30810593#10 31281116#0 31281116#1 -38420109#0"/>
    </vehicle>
    <vehicle id="78" depart="78.00">
        <route edges="-46953014 -38312869#3 -38312869#2 -38312869#1 -38312869#0"/>
    </vehicle>
    <vehicle id="79" depart="79.00">
        <route edges="30810593#35 -30810593#35 -30810593#34 -30810593#33 -30810593#32 -30810593#31 -30810593#30 -30810593#29 -30810593#28 -30810593#27 -30810593#26 -30810593#25 -30810593#24 -30810593#23 -30810593#22 -30810593#21 37786243#0 37786243#1 37786243#2 37786243#3 37786243#4 37786243#5 37786243#6 37786243#7 37786243#8 37786243#9 37786243#10 37786243#11 -362292209#0 -361829849#4 361829849#4"/>
    </vehicle>
    <vehicle id="80" depart="80.00">
        <route edges="37785986#0 37785986#1 -30810593#26 -30810593#25 -30810593#24 -30810593#23 -30810593#22 -30810593#21 -30810593#20 -30810593#19 -30810593#18 -30810593#17 -30810593#16 -30810593#15 -30810593#14 -30810593#13 -30810593#12 -30810593#11 -30810593#10 -30810593#9 -30810593#8 -30810593#7 -30810593#6 -30810593#5 -30810593#4 -30810593#3 -30810593#2 -30810593#1 -30810593#0"/>
    </vehicle>
    <vehicle id="81" depart="81.00">
        <route edges="135400845#0 -168712759#2 -168712759#1 -38312869#10 -38312869#9 -38312869#8 -38312869#7 -38312869#6 38312867#1 -46953018#3"/>
    </vehicle>
    <vehicle id="82" depart="82.00">
        <route edges="-38415998 -37786326#0 38312851#1 38312851#2 38312851#3 38312851#4 38312851#5 38312851#6 38312851#7 38312851#8 38312851#9 38312851#10 37786243#6 38312868#0 38312868#1 38312868#2"/>
    </vehicle>
    <vehicle id="83" depart="83.00">
        <route edges="168712733#2 -175063889#4 -175063889#3 -175063889#2 -175063889#1 -175063889#0 -38312851#10 -38312851#9 -38312851#8 -38312851#7 -38312851#6 -38312851#5 -38312851#4 -38312851#3 -38312851#2 -38312851#1 -38312851#0 -31565210#4 -31565210#3 -31565210#2 -46953097#1 -46953000#0"/>
    </vehicle>
    <vehicle id="84" depart="84.00">
        <route edges="-30810593#29 -30810593#28 -30810593#27 -30810593#26 -30810593#25 -30810593#24 -30810593#23 -30810593#22 -30810593#21 -30810593#20 -30810593#19 -30810593#18 -30810593#17 -30810593#16 -30810593#15 -30810593#14 -30810593#13 -30810593#12 -30810593#11 31281116#0 31281116#1 31281116#2 31281116#3 -38421542#0"/>
    </vehicle>
    <vehicle id="85" depart="85.00">
        <route edges="175068180#1 -175068172#2 -175068172#1 -175068172#0 -169722390#3 175284896#0 175284896#1 175284896#2 175284896#3 175284896#4 -30810593#12 -168712679#3 -168712679#2 -168712679#1 -31565297 38312851#0 37786326#0 37786326#1 37786326#2 38416001#0"/>
    </vehicle>
    <vehicle id="86" depart="86.00">
        <route edges="-38312871#0 38312871#0 38312871#1 38312871#2 38312871#3 38312871#4 38312871#5 38312871#6 38312871#7 38312871#8 38312871#9 38312871#10 38312868#3 -38312867#5 -38312867#4 -38312867#3 -38312867#2 46953018#4 -46953018#4"/>
    </vehicle>
    <vehicle id="87" depart="87.00">
        <route edges="46953075 361829849#2 361829849#3 361829849#4 362292209#0 -37786243#11 -37786243#10 -37786243#9 -37786243#8 -37786243#7 -37786243#6 -37786243#5 -37786243#4 -37786243#3 -37786243#2 168712753#1 168712753#2 168712753#3 168712753#4 168712751#0"/>
    </vehicle>
    <vehicle id="88" depart="88.00">
        <route edges="168712689 175063883#3 175063883#4 175063883#5 -175063889#6 -175063889#5 -175063889#4 -175063889#3 -175063889#2 -175063889#1 -175063889#0 -37786243#5 -37786243#4 -37786243#3 -37786243#2 -37786243#1 -37786243#0 -30810593#20 -30810593#19 -30810593#18 -30810593#17 -30810593#16 -30810593#15 -30810593#14 -30810593#13 -30810593#12 -30810593#11 -30810593#10 -30810593#9 -30810593#8 38420111#0 38420111#1"/>
    </vehicle>
    <vehicle id="89" depart="89.00">
        <route edges="168712752#5 -37786243#0 -30810593#20 -30810593#19 -30810593#18 -30810593#17 -30810593#16 -30810593#15 -30810593#14 -30810593#13 -175284896#4 -175284896#3 -175284896#2 -175284896#1 175284924#1"/>
    </vehicle>
    <vehicle id="90" depart="90.00">
        <route edges="-46953073 46952990#2 46952990#3 46952990#4 -37786326#3 -37786326#2 -37786326#1 -37786326#0 -38312851#0 31565297 168712679#1 168712679#2 168712679#3 -30810593#11 -30810593#10 38420112#0 -38420112#0"/>
    </vehicle>
    <vehicle id="91" depart="91.00">
        <route edges="-37785985#1 37785985#1 37785985#2 37785985#3 37786243#0 37786243#1 37786243#2 37786243#3 37786243#4 37786243#5 37786243#6 37786243#7 37786243#8 37786243#9 37786243#10 37786243#11 -362292209#0 -361829849#4 -361829849#3 -361829849#2 -361829849#1 38416004#0 143793375#0 -46953111"/>
    </vehicle>
    <vehicle id="92" depart="92.00">
        <route edges="46953071 -143793373#0 -37786326#7 -37786326#6 -37786326#5 -37786326#4 -37786326#3 -37786326#2 -37786326#1 -37786326#0 -38312851#0 -31565210#4"/>
    </vehicle>
    <vehicle id="93" depart="93.00">
        <route edges="168712728#0 38312871#9 38312871#10 38312868#3 -38312867#5 -38312867#4 -38312867#3 -38312867#2 -38312867#1 -38312867#0 362292209#6 361829848#0 361829848#1"/>
    </vehicle>
    <vehicle id="94" depart="94.00">
        <route edges="-175068166#3 197731575 -30810593#22 -30810593#21 37786243#0 37786243#1 37786243#2 37786243#3 37786243#4 37786243#5 -38312851#10 -38312851#9 -38312851#8 -38312851#7 -38312851#6 -38312851#5 -38312851#4 -38312851#3 -38312851#2 -46953006 46953006"/>
    </vehicle>
    <vehicle id="95" depart="95.00">
        <route edges="38415999#1 38415999#2 -37786326#1 -37786326#0 -38312851#0 31565297 168712679#1 168712679#2 168712679#3 -30810593#11 -30810593#10 -30810593#9 264140337#0 264140337#1"/>
    </vehicle>
    <vehicle id="96" depart="96.00">
        <route edges="-46953021#2 -46953021#1 -46953021#0 175063889#2 175063889#3 38312871#8 38312871#9 38312871#10 38312868#3 -38312867#5 -38312867#4 46953031"/>
    </vehicle>
    <vehicle id="97" depart="97.00">