<?xml version="1.0" encoding="UTF-8"?>

<!-- generated on Tue Jun 27 23:10:25 2017 by SUMO polyconvert Version 0.28.0
<?xml version="1.0" encoding="UTF-8"?>

<configuration xmlns:xsi="http://www.w3.org/2001/XMLSchema-instance" xsi:noNamespaceSchemaLocation="http://sumo.dlr.de/xsd/polyconvertConfiguration.xsd">

    <input>
        <net-file value="bangalore.net.xml"/>
        <osm-files value="bangalore.osm"/>
        <type-file value="typemap.xml"/>
    </input>

    <output>
        <output-file value="bangalore.poly.xml"/>
    </output>

    <processing>
        <poi-layer-offset value="5"/>
    </processing>

</configuration>
-->

<additional xmlns:xsi="http://www.w3.org/2001/XMLSchema-instance" xsi:noNamespaceSchemaLocation="http://sumo.dlr.de/xsd/additional_file.xsd">
    <location netOffset="-784855.26,-1439150.67" convBoundary="0.00,-0.00,2493.02,2379.33" origBoundary="77.626119,13.004828,77.649102,13.026314" projParameter="+proj=utm +zone=43 +ellps=WGS84 +datum=WGS84 +units=m +no_defs"/>

    <poly id="168712748" type="tourism" color="207,245,201" fill="1" layer="-2.00" shape="1562.33,1355.83 1540.57,1210.43 1603.26,1201.83 1616.80,1352.64 1562.33,1355.83"/>
    <poly id="175063893" type="amenity" color="237,199,199" fill="1" layer="-1.00" shape="1558.25,578.65 1510.84,576.45 1515.34,525.24 1564.81,525.94 1564.02,578.71 1558.25,578.65"/>
    <poly id="264139928" type="residential" color="235,235,227" fill="1" layer="-3.00" shape="1178.87,1827.39 1436.20,1782.20 1430.29,1513.63 1268.27,1527.90 1283.55,1666.97 1169.49,1700.35 1170.18,1763.49 1178.87,1827.39"/>
    <poly id="335526663" type="tourism" color="207,245,201" fill="1" layer="-2.00" shape="723.28,1368.01 717.01,1343.32 797.75,1323.74 798.66,1330.24 723.28,1368.01"/>
    <poly id="346167951" type="building" color="255,230,230" fill="1" layer="-1.00" shape="1727.21,1755.34 1750.01,1752.86 1749.59,1749.01 1764.12,1747.44 1762.60,1733.68 1754.09,1734.61 1755.14,1744.20 1749.13,1744.86 1747.36,1728.79 1724.57,1731.26 1725.94,1743.74 1721.90,1744.18 1722.77,1752.11 1726.82,1751.68 1727.21,1755.34"/>
    <poly id="346167953" type="building" color="255,230,230" fill="1" layer="-1.00" shape="1733.12,1640.46 1743.55,1639.35 1743.75,1641.17 1763.64,1639.05 1763.44,1637.25 1776.92,1635.82 1775.33,1621.03 1777.35,1620.81 1775.57,1604.22 1758.11,1606.07 1758.02,1605.31 1733.01,1607.96 1734.24,1619.35 1732.08,1619.58 1733.44,1632.25 1732.25,1632.38 1733.12,1640.46"/>
    <poly id="346168019" type="building" color="255,230,230" fill="1" layer="-1.00" shape="1502.65,1663.44 1523.05,1663.19 1522.73,1638.97 1502.33,1639.23 1502.65,1663.44"/>
    <poly id="346168025" type="building" color="255,230,230" fill="1" layer="-1.00" shape="1462.05,1627.26 1490.21,1624.42 1490.70,1611.76 1462.34,1610.63 1462.05,1627.26"/>
    <poly id="346168027" type="building" color="255,230,230" fill="1" layer="-1.00" shape="1398.18,1711.13 1412.97,1710.07 1412.19,1699.34 1397.41,1700.41 1398.18,1711.13"/>
    <poly id="346168060" type="building" color="255,230,230" fill="1" layer="-1.00" shape="1692.73,1643.01 1704.89,1641.73 1703.36,1627.33 1691.20,1628.61 1692.73,1643.01"/>
    <poly id="346168062" type="building" color="255,230,230" fill="1" layer="-1.00" shape="1399.43,1733.22 1412.70,1732.81 1412.40,1723.64 1399.14,1724.06 1399.43,1733.22"/>
    <poly id="346168066" type="building" color="255,230,230" fill="1" layer="-1.00" shape="1406.43,1671.14 1418.75,1670.33 1418.18,1661.60 1405.84,1662.41 1406.43,1671.14"/>
    <poly id="346168208" type="building" color="255,230,230" fill="1" layer="-1.00" shape="1395.03,1648.76 1408.14,1648.43 1407.87,1637.76 1394.76,1638.09 1395.03,1648.76"/>
    <poly id="346168231" type="building" color="255,230,230" fill="1" layer="-1.00" shape="1459.58,1671.54 1475.59,1669.33 1474.10,1658.73 1458.09,1660.94 1459.58,1671.54"/>
    <poly id="346168251" type="building" color="255,230,230" fill="1" layer="-1.00" shape="1395.50,1636.07 1407.87,1636.46 1408.26,1624.19 1395.89,1623.80 1395.50,1636.07"/>
    <poly id="346168298" type="building" color="255,230,230" fill="1" layer="-1.00" shape="1406.98,1698.69 1413.93,1698.77 1413.97,1694.94 1419.90,1695.00 1419.96,1689.38 1415.07,1689.33 1415.10,1686.62 1407.10,1686.54 1406.98,1698.69"/>
    <poly id="346194799" type="building" color="255,230,230" fill="1" layer="-1.00" shape="1614.94,1474.33 1625.76,1474.35 1625.76,1468.09 1614.95,1468.06 1614.94,1474.33"/>
    <poly id="346194801" type="building" color="255,230,230" fill="1" layer="-1.00" shape="1611.48,1494.54 1621.17,1494.74 1621.35,1485.88 1611.65,1485.69 1611.48,1494.54"/>
    <poly id="346194857" type="building" color="255,230,230" fill="1" layer="-1.00" shape="1643.42,1523.73 1656.33,1521.26 1653.85,1508.48 1640.93,1510.97 1643.42,1523.73"/>
    <poly id="346194899" type="building" color="255,230,230" fill="1" layer="-1.00" shape="1614.73,1484.90 1626.12,1484.54 1625.85,1475.67 1614.46,1476.02 1614.73,1484.90"/>
    <poly id="346194977" type="building" color="255,230,230" fill="1" layer="-1.00" shape="1622.73,1439.35 1622.82,1431.03 1613.13,1430.93 1613.05,1439.25 1622.73,1439.35"/>
    <poly id="346194988" type="building" color="255,230,230" fill="1" layer="-1.00" shape="1681.84,1503.00 1691.54,1501.61 1689.55,1487.91 1679.84,1489.31 1681.84,1503.00"/>
    <poly id="346194998" type="building" color="255,230,230" fill="1" layer="-1.00" shape="1606.86,1531.42 1622.77,1530.57 1621.53,1508.11 1605.62,1508.97 1606.86,1531.42"/>
    <poly id="346195004" type="building" color="255,230,230" fill="1" layer="-1.00" shape="1601.00,1466.42 1611.45,1466.07 1610.94,1451.35 1600.49,1451.71 1601.00,1466.42"/>
    <poly id="346195025" type="building" color="255,230,230" fill="1" layer="-1.00" shape="1613.92,1411.47 1613.21,1396.62 1601.62,1397.17 1602.34,1412.03 1613.92,1411.47"/>
    <poly id="346195079" type="building" color="255,230,230" fill="1" layer="-1.00" shape="1600.27,1494.52 1609.50,1494.24 1609.11,1481.65 1599.89,1481.92 1600.27,1494.52"/>
    <poly id="346195081" type="building" color="255,230,230" fill="1" layer="-1.00" shape="1623.31,1429.16 1623.49,1420.66 1613.09,1420.44 1612.91,1428.94 1623.31,1429.16"/>
    <poly id="346195091" type="building" color="255,230,230" fill="1" layer="-1.00" shape="1602.70,1478.38 1613.90,1478.02 1613.57,1467.56 1602.37,1467.91 1602.70,1478.38"/>
    <poly id="346195095" type="building" color="255,230,230" fill="1" layer="-1.00" shape="1627.59,1602.80 1637.20,1601.59 1635.71,1589.97 1626.10,1591.17 1627.59,1602.80"/>
    <poly id="346195124" type="building" color="255,230,230" fill="1" layer="-1.00" shape="1638.13,1507.32 1651.62,1505.02 1649.38,1492.10 1635.91,1494.40 1638.13,1507.32"/>
    <poly id="346195155" type="building" color="255,230,230" fill="1" layer="-1.00" shape="1601.28,1429.96 1612.46,1429.83 1612.27,1413.18 1601.08,1413.32 1601.28,1429.96"/>
    <poly id="346195185" type="building" color="255,230,230" fill="1" layer="-1.00" shape="1570.43,1610.59 1592.40,1610.02 1592.23,1603.75 1595.51,1603.66 1595.37,1598.31 1570.13,1598.97 1570.43,1610.59"/>
    <poly id="346221131" type="building" color="255,230,230" fill="1" layer="-1.00" shape="1812.31,1399.52 1812.21,1384.57 1802.20,1384.65 1802.32,1399.59 1812.31,1399.52"/>
    <poly id="346221132" type="building" color="255,230,230" fill="1" layer="-1.00" shape="1650.39,1487.06 1665.88,1485.44 1664.50,1472.52 1649.02,1474.14 1650.39,1487.06"/>
    <poly id="346221136" type="building" color="255,230,230" fill="1" layer="-1.00" shape="1688.02,1371.75 1697.35,1370.26 1694.92,1355.29 1685.59,1356.79 1688.02,1371.75"/>
    <poly id="346221137" type="building" color="255,230,230" fill="1" layer="-1.00" shape="1806.34,1462.92 1826.84,1462.22 1826.37,1448.96 1805.87,1449.68 1806.34,1462.92"/>
    <poly id="346221141" type="building" color="255,230,230" fill="1" layer="-1.00" shape="1680.85,1439.01 1689.96,1437.62 1687.71,1423.12 1678.60,1424.52 1680.85,1439.01"/>
    <poly id="346221145" type="building" color="255,230,230" fill="1" layer="-1.00" shape="1776.82,1370.72 1798.65,1369.90 1798.13,1356.35 1776.30,1357.18 1776.82,1370.72"/>
    <poly id="346221150" type="building" color="255,230,230" fill="1" layer="-1.00" shape="1658.90,1444.74 1670.10,1443.29 1668.00,1427.39 1656.80,1428.86 1658.90,1444.74"/>
    <poly id="346221155" type="building" color="255,230,230" fill="1" layer="-1.00" shape="1668.12,1466.79 1679.99,1464.13 1677.41,1452.74 1665.54,1455.39 1668.12,1466.79"/>
    <poly id="346221156" type="building" color="255,230,230" fill="1" layer="-1.00" shape="1752.00,1204.44 1762.94,1202.96 1760.02,1181.69 1749.10,1183.16 1752.00,1204.44"/>
    <poly id="346221159" type="building" color="255,230,230" fill="1" layer="-1.00" shape="1632.42,1330.07 1653.89,1325.67 1650.98,1311.65 1629.50,1316.05 1632.42,1330.07"/>
    <poly id="346221160" type="building" color="255,230,230" fill="1" layer="-1.00" shape="1789.86,1693.75 1791.17,1705.14 1814.45,1702.50 1813.12,1691.10 1789.86,1693.75"/>
    <poly id="346221162" type="building" color="255,230,230" fill="1" layer="-1.00" shape="1817.44,1737.61 1816.92,1725.17 1801.88,1725.80 1802.40,1738.24 1817.44,1737.61"/>
    <poly id="346221171" type="building" color="255,230,230" fill="1" layer="-1.00" shape="1781.97,1490.18 1805.27,1488.83 1804.68,1478.88 1781.38,1480.23 1781.97,1490.18"/>
    <poly id="346221175" type="building" color="255,230,230" fill="1" layer="-1.00" shape="1761.97,1249.08 1786.11,1244.18 1783.87,1233.28 1759.73,1238.17 1761.97,1249.08"/>
    <poly id="346221176" type="building" color="255,230,230" fill="1" layer="-1.00" shape="1630.80,1281.40 1645.51,1280.03 1643.71,1261.10 1629.00,1262.48 1630.80,1281.40"/>
    <poly id="346221177" type="building" color="255,230,230" fill="1" layer="-1.00" shape="1816.11,1630.52 1837.58,1628.50 1835.94,1611.20 1814.46,1613.21 1816.11,1630.52"/>
    <poly id="346221180" type="building" color="255,230,230" fill="1" layer="-1.00" shape="1785.31,1526.44 1808.61,1525.63 1808.07,1510.23 1784.77,1511.04 1785.31,1526.44"/>
    <poly id="346221185" type="building" color="255,230,230" fill="1" layer="-1.00" shape="1711.16,1461.52 1719.45,1460.30 1717.73,1448.87 1709.45,1450.10 1711.16,1461.52"/>
    <poly id="346221186" type="building" color="255,230,230" fill="1" layer="-1.00" shape="1783.98,1562.68 1807.05,1561.51 1806.30,1547.01 1783.23,1548.17 1783.98,1562.68"/>
    <poly id="346221187" type="building" color="255,230,230" fill="1" layer="-1.00" shape="1795.63,1269.89 1794.32,1256.87 1784.90,1257.80 1786.21,1270.82 1795.63,1269.89"/>
    <poly id="346221189" type="building" color="255,230,230" fill="1" layer="-1.00" shape="1764.54,1202.19 1777.86,1200.73 1775.78,1181.89 1762.46,1183.35 1764.54,1202.19"/>
    <poly id="346221191" type="building" color="255,230,230" fill="1" layer="-1.00" shape="1742.47,1365.57 1754.71,1364.30 1753.14,1349.34 1740.89,1350.61 1742.47,1365.57"/>
    <poly id="346221194" type="building" color="255,230,230" fill="1" layer="-1.00" shape="1813.14,1608.33 1832.29,1607.71 1831.86,1594.71 1812.71,1595.33 1813.14,1608.33"/>
    <poly id="346221202" type="building" color="255,230,230" fill="1" layer="-1.00" shape="1787.49,1477.53 1803.70,1476.62 1802.94,1463.09 1786.73,1463.98 1787.49,1477.53"/>
    <poly id="346221208" type="building" color="255,230,230" fill="1" layer="-1.00" shape="1809.76,1524.11 1821.47,1523.97 1821.29,1508.57 1809.57,1508.71 1809.76,1524.11"/>
    <poly id="346221209" type="building" color="255,230,230" fill="1" layer="-1.00" shape="1704.52,1386.51 1716.17,1384.99 1714.42,1371.79 1702.78,1373.31 1704.52,1386.51"/>
    <poly id="346221211" type="building" color="255,230,230" fill="1" layer="-1.00" shape="1808.54,1562.09 1828.11,1561.73 1827.83,1546.42 1808.25,1546.78 1808.54,1562.09"/>
    <poly id="346221214" type="building" color="255,230,230" fill="1" layer="-1.00" shape="1807.51,1477.35 1826.52,1475.83 1825.58,1464.19 1806.57,1465.70 1807.51,1477.35"/>
    <poly id="346221220" type="building" color="255,230,230" fill="1" layer="-1.00" shape="1801.50,1591.22 1800.95,1580.37 1787.42,1581.04 1787.97,1591.89 1801.50,1591.22"/>
    <poly id="346221222" type="building" color="255,230,230" fill="1" layer="-1.00" shape="1644.71,1372.56 1658.70,1371.19 1657.51,1359.24 1643.52,1360.61 1644.71,1372.56"/>
    <poly id="346221223" type="building" color="255,230,230" fill="1" layer="-1.00" shape="1806.22,1505.50 1824.88,1504.92 1824.44,1491.26 1805.79,1491.83 1806.22,1505.50"/>
    <poly id="346221226" type="building" color="255,230,230" fill="1" layer="-1.00" shape="1814.44,1400.47 1825.76,1399.92 1825.10,1386.48 1813.78,1387.02 1814.44,1400.47"/>
    <poly id="346221227" type="building" color="255,230,230" fill="1" layer="-1.00" shape="1645.49,1441.36 1653.95,1440.06 1651.81,1426.23 1643.34,1427.54 1645.49,1441.36"/>
    <poly id="346221230" type="building" color="255,230,230" fill="1" layer="-1.00" shape="1782.54,1422.48 1806.90,1420.88 1805.99,1407.17 1781.63,1408.78 1782.54,1422.48"/>
    <poly id="346221232" type="building" color="255,230,230" fill="1" layer="-1.00" shape="1718.77,1385.29 1729.69,1383.80 1727.77,1369.90 1716.85,1371.38 1718.77,1385.29"/>
    <poly id="346221237" type="building" color="255,230,230" fill="1" layer="-1.00" shape="1636.06,1351.67 1656.31,1348.71 1653.48,1329.64 1633.23,1332.60 1636.06,1351.67"/>
    <poly id="346221242" type="building" color="255,230,230" fill="1" layer="-1.00" shape="1792.66,1739.98 1801.43,1739.50 1800.58,1723.99 1791.83,1724.47 1792.66,1739.98"/>
    <poly id="346221249" type="building" color="255,230,230" fill="1" layer="-1.00" shape="1814.55,1689.80 1834.80,1687.96 1833.39,1672.69 1813.14,1674.54 1814.55,1689.80"/>
    <poly id="346221254" type="building" color="255,230,230" fill="1" layer="-1.00" shape="1631.71,1308.51 1650.95,1304.03 1647.12,1287.86 1627.89,1292.34 1631.71,1308.51"/>
    <poly id="346221257" type="building" color="255,230,230" fill="1" layer="-1.00" shape="1781.32,1200.24 1799.58,1197.91 1797.00,1177.94 1778.75,1180.26 1781.32,1200.24"/>
    <poly id="346221258" type="building" color="255,230,230" fill="1" layer="-1.00" shape="1812.43,1703.61 1813.62,1717.70 1838.57,1715.62 1837.39,1701.54 1812.43,1703.61"/>
    <poly id="346221260" type="building" color="255,230,230" fill="1" layer="-1.00" shape="1695.96,1346.16 1711.42,1344.07 1707.99,1319.03 1692.53,1321.11 1695.96,1346.16"/>
    <poly id="346221266" type="building" color="255,230,230" fill="1" layer="-1.00" shape="1788.02,1304.50 1817.07,1302.69 1816.42,1292.49 1787.38,1294.30 1788.02,1304.50"/>
    <poly id="346221267" type="building" color="255,230,230" fill="1" layer="-1.00" shape="1771.04,1232.63 1805.35,1228.13 1802.03,1203.25 1767.73,1207.76 1771.04,1232.63"/>
    <poly id="346221268" type="building" color="255,230,230" fill="1" layer="-1.00" shape="1731.43,1384.03 1741.53,1382.93 1740.01,1369.16 1729.90,1370.27 1731.43,1384.03"/>
    <poly id="346221280" type="building" color="255,230,230" fill="1" layer="-1.00" shape="1783.22,1510.68 1803.85,1509.45 1802.84,1492.89 1782.21,1494.13 1783.22,1510.68"/>
    <poly id="346221283" type="building" color="255,230,230" fill="1" layer="-1.00" shape="1814.13,1658.39 1833.72,1656.07 1831.91,1640.99 1812.32,1643.31 1814.13,1658.39"/>
    <poly id="346221284" type="building" color="255,230,230" fill="1" layer="-1.00" shape="1785.69,1540.99 1808.07,1539.64 1807.30,1527.10 1784.92,1528.45 1785.69,1540.99"/>
    <poly id="346221288" type="building" color="255,230,230" fill="1" layer="-1.00" shape="1803.44,1269.04 1811.64,1268.47 1810.69,1255.01 1802.50,1255.58 1803.44,1269.04"/>
    <poly id="346221289" type="building" color="255,230,230" fill="1" layer="-1.00" shape="1794.90,1722.32 1812.62,1719.81 1810.55,1705.42 1792.85,1707.93 1794.90,1722.32"/>
    <poly id="346221290" type="building" color="255,230,230" fill="1" layer="-1.00" shape="1802.12,1446.95 1801.87,1432.27 1781.48,1432.61 1781.73,1447.29 1802.12,1446.95"/>
    <poly id="346221291" type="building" color="255,230,230" fill="1" layer="-1.00" shape="1740.49,1413.82 1751.37,1412.09 1748.37,1393.36 1737.48,1395.08 1740.49,1413.82"/>
    <poly id="346221292" type="building" color="255,230,230" fill="1" layer="-1.00" shape="1744.83,1381.46 1756.56,1379.60 1754.29,1365.48 1742.56,1367.34 1744.83,1381.46"/>
    <poly id="346221296" type="building" color="255,230,230" fill="1" layer="-1.00" shape="1807.85,1490.80 1818.87,1490.04 1818.20,1480.41 1818.00,1477.62 1806.99,1478.38 1807.85,1490.80"/>
    <poly id="346221297" type="building" color="255,230,230" fill="1" layer="-1.00" shape="1789.69,1610.14 1811.43,1609.44 1810.96,1595.24 1789.22,1595.95 1789.69,1610.14"/>
    <poly id="346221298" type="building" color="255,230,230" fill="1" layer="-1.00" shape="1767.68,1288.23 1780.80,1286.57 1779.16,1273.67 1766.04,1275.32 1767.68,1288.23"/>
    <poly id="346221302" type="building" color="255,230,230" fill="1" layer="-1.00" shape="1816.59,1701.98 1835.33,1700.40 1834.39,1689.34 1815.64,1690.93 1816.59,1701.98"/>
    <poly id="346221303" type="building" color="255,230,230" fill="1" layer="-1.00" shape="1807.98,1419.84 1828.74,1418.87 1828.08,1404.99 1807.33,1405.94 1807.98,1419.84"/>
    <poly id="346221310" type="building" color="255,230,230" fill="1" layer="-1.00" shape="1780.53,1461.99 1799.77,1461.86 1799.67,1448.31 1780.43,1448.44 1780.53,1461.99"/>
    <poly id="346221311" type="building" color="255,230,230" fill="1" layer="-1.00" shape="1787.86,1564.89 1788.23,1577.33 1806.95,1576.76 1806.57,1564.32 1787.86,1564.89"/>
    <poly id="346221316" type="building" color="255,230,230" fill="1" layer="-1.00" shape="1728.26,1368.47 1738.73,1367.38 1737.92,1359.68 1740.98,1359.36 1739.91,1349.18 1726.38,1350.58 1728.26,1368.47"/>
    <poly id="346221322" type="building" color="255,230,230" fill="1" layer="-1.00" shape="1657.89,1296.29 1670.01,1295.03 1671.46,1308.77 1684.67,1307.40 1681.41,1276.44 1656.07,1279.08 1657.89,1296.29"/>
    <poly id="346237830" type="building" color="255,230,230" fill="1" layer="-1.00" shape="1503.94,1248.56 1532.46,1243.52 1527.81,1217.55 1499.28,1222.59 1503.94,1248.56"/>
    <poly id="346237875" type="building" color="255,230,230" fill="1" layer="-1.00" shape="1514.32,1363.53 1528.05,1361.43 1526.35,1350.50 1512.63,1352.61 1514.32,1363.53"/>
    <poly id="346237876" type="building" color="255,230,230" fill="1" layer="-1.00" shape="1410.27,1355.99 1418.93,1355.41 1418.35,1346.80 1409.70,1347.38 1410.27,1355.99"/>
    <poly id="346237878" type="building" color="255,230,230" fill="1" layer="-1.00" shape="1530.87,1336.77 1548.02,1334.38 1546.42,1323.14 1529.28,1325.53 1530.87,1336.77"/>
    <poly id="346237884" type="building" color="255,230,230" fill="1" layer="-1.00" shape="1405.57,1463.03 1406.51,1473.01 1424.36,1471.34 1423.42,1461.37 1405.57,1463.03"/>
    <poly id="346237886" type="building" color="255,230,230" fill="1" layer="-1.00" shape="1484.85,1300.80 1499.63,1299.50 1498.21,1283.56 1483.43,1284.85 1484.85,1300.80"/>
    <poly id="346237894" type="building" color="255,230,230" fill="1" layer="-1.00" shape="1487.81,1366.52 1495.67,1365.67 1494.54,1355.27 1486.67,1356.11 1487.81,1366.52"/>
    <poly id="346237895" type="building" color="255,230,230" fill="1" layer="-1.00" shape="1419.58,1354.41 1426.62,1353.88 1425.97,1345.48 1418.94,1346.00 1419.58,1354.41"/>
    <poly id="346237901" type="building" color="255,230,230" fill="1" layer="-1.00" shape="1411.79,1393.05 1425.64,1391.88 1424.71,1381.13 1410.86,1382.32 1411.79,1393.05"/>
    <poly id="346237909" type="building" color="255,230,230" fill="1" layer="-1.00" shape="1462.11,1370.88 1484.83,1366.81 1482.76,1355.39 1460.04,1359.45 1462.11,1370.88"/>
    <poly id="346237947" type="building" color="255,230,230" fill="1" layer="-1.00" shape="1529.68,1345.70 1545.79,1344.29 1545.13,1336.89 1529.02,1338.31 1529.68,1345.70"/>
    <poly id="346237952" type="building" color="255,230,230" fill="1" layer="-1.00" shape="1417.45,1417.72 1424.72,1417.74 1424.73,1411.38 1417.45,1411.35 1417.45,1417.72"/>
    <poly id="346237955" type="building" color="255,230,230" fill="1" layer="-1.00" shape="1404.19,1532.44 1416.72,1531.62 1415.91,1519.46 1403.38,1520.27 1404.19,1532.44"/>
    <poly id="346237958" type="building" color="255,230,230" fill="1" layer="-1.00" shape="1403.32,1588.05 1414.79,1588.43 1415.22,1575.52 1403.74,1575.14 1403.32,1588.05"/>
    <poly id="346237959" type="building" color="255,230,230" fill="1" layer="-1.00" shape="1442.85,1327.82 1459.10,1327.34 1458.48,1306.20 1442.22,1306.68 1442.85,1327.82"/>
    <poly id="346237965" type="building" color="255,230,230" fill="1" layer="-1.00" shape="1530.15,1318.75 1543.21,1317.17 1540.84,1297.96 1527.79,1299.54 1530.15,1318.75"/>
    <poly id="346237973" type="building" color="255,230,230" fill="1" layer="-1.00" shape="1408.40,1344.59 1419.98,1343.39 1419.10,1335.02 1407.52,1336.22 1408.40,1344.59"/>
    <poly id="346237978" type="building" color="255,230,230" fill="1" layer="-1.00" shape="1449.96,1302.55 1462.22,1301.49 1461.17,1289.57 1448.91,1290.63 1449.96,1302.55"/>
    <poly id="346237982" type="building" color="255,230,230" fill="1" layer="-1.00" shape="1408.93,1329.31 1422.55,1327.63 1421.20,1316.84 1407.58,1318.53 1408.93,1329.31"/>
    <poly id="346237987" type="building" color="255,230,230" fill="1" layer="-1.00" shape="1530.85,1360.39 1550.06,1358.73 1548.99,1346.56 1529.78,1348.22 1530.85,1360.39"/>
    <poly id="346237989" type="building" color="255,230,230" fill="1" layer="-1.00" shape="1464.77,1241.03 1480.42,1237.64 1476.68,1220.60 1461.02,1223.99 1464.77,1241.03"/>
    <poly id="346237998" type="building" color="255,230,230" fill="1" layer="-1.00" shape="1499.46,1365.55 1513.06,1363.18 1511.47,1354.21 1497.88,1356.59 1499.46,1365.55"/>
    <poly id="346238037" type="building" color="255,230,230" fill="1" layer="-1.00" shape="1522.86,1292.07 1533.90,1290.75 1534.52,1295.97 1534.54,1296.12 1541.31,1295.30 1540.50,1289.94 1543.96,1289.53 1542.48,1277.49 1521.39,1280.02 1522.86,1292.07"/>
    <poly id="346252449" type="building" color="255,230,230" fill="1" layer="-1.00" shape="1768.55,1305.87 1778.60,1304.91 1777.08,1288.98 1767.02,1289.93 1768.55,1305.87"/>
    <poly id="346483618" type="building" color="255,230,230" fill="1" layer="-1.00" shape="1757.09,1055.89 1769.07,1053.46 1767.42,1045.46 1755.45,1047.88 1757.09,1055.89"/>
    <poly id="346483646" type="building" color="255,230,230" fill="1" layer="-1.00" shape="1688.82,1136.35 1700.99,1134.93 1699.91,1125.85 1687.74,1127.27 1688.82,1136.35"/>
    <poly id="346483701" type="building" color="255,230,230" fill="1" layer="-1.00" shape="1687.54,1114.11 1698.32,1112.73 1696.25,1096.80 1685.47,1098.17 1687.54,1114.11"/>
    <poly id="346483740" type="building" color="255,230,230" fill="1" layer="-1.00" shape="1718.67,1092.07 1731.17,1090.01 1729.26,1078.66 1716.77,1080.73 1718.67,1092.07"/>
    <poly id="346483747" type="building" color="255,230,230" fill="1" layer="-1.00" shape="1673.67,1122.06 1687.09,1119.65 1685.24,1109.50 1671.82,1111.92 1673.67,1122.06"/>
    <poly id="346483764" type="building" color="255,230,230" fill="1" layer="-1.00" shape="1705.06,1080.09 1714.63,1078.93 1713.32,1068.27 1703.76,1069.42 1705.06,1080.09"/>
    <poly id="346483982" type="building" color="255,230,230" fill="1" layer="-1.00" shape="1655.81,1127.34 1667.48,1126.09 1666.07,1112.93 1654.39,1114.19 1655.81,1127.34"/>
    <poly id="346483991" type="building" color="255,230,230" fill="1" layer="-1.00" shape="1663.47,1185.77 1674.99,1184.34 1674.10,1177.37 1662.59,1178.80 1663.47,1185.77"/>
    <poly id="346484016" type="building" color="255,230,230" fill="1" layer="-1.00" shape="1659.77,1160.62 1670.54,1159.56 1669.91,1153.06 1659.12,1154.11 1659.77,1160.62"/>
    <poly id="346484061" type="building" color="255,230,230" fill="1" layer="-1.00" shape="1636.42,1141.63 1651.16,1140.12 1649.84,1127.41 1635.10,1128.92 1636.42,1141.63"/>
    <poly id="346484089" type="building" color="255,230,230" fill="1" layer="-1.00" shape="1754.19,1045.99 1768.73,1043.04 1766.93,1034.26 1752.38,1037.21 1754.19,1045.99"/>
    <poly id="346484097" type="building" color="255,230,230" fill="1" layer="-1.00" shape="1658.33,1148.57 1668.38,1147.56 1667.65,1140.35 1657.60,1141.35 1658.33,1148.57"/>
    <poly id="346484105" type="building" color="255,230,230" fill="1" layer="-1.00" shape="1636.84,1164.71 1645.55,1163.84 1644.23,1150.44 1635.51,1151.29 1636.84,1164.71"/>
    <poly id="346484114" type="building" color="255,230,230" fill="1" layer="-1.00" shape="1656.69,1140.27 1668.35,1139.45 1667.58,1128.49 1655.90,1129.31 1656.69,1140.27"/>
    <poly id="346484115" type="building" color="255,230,230" fill="1" layer="-1.00" shape="1662.24,1175.50 1674.85,1174.30 1673.74,1162.66 1661.11,1163.86 1662.24,1175.50"/>
    <poly id="346484123" type="building" color="255,230,230" fill="1" layer="-1.00" shape="1496.01,1138.15 1504.78,1137.69 1504.29,1128.70 1495.53,1129.16 1496.01,1138.15"/>
    <poly id="346484163" type="building" color="255,230,230" fill="1" layer="-1.00" shape="1741.79,1047.75 1751.95,1046.19 1750.40,1036.13 1740.22,1037.69 1741.79,1047.75"/>
    <poly id="346484168" type="building" color="255,230,230" fill="1" layer="-1.00" shape="1758.83,1071.87 1771.75,1069.63 1769.22,1055.30 1756.30,1057.54 1758.83,1071.87"/>
    <poly id="346484193" type="building" color="255,230,230" fill="1" layer="-1.00" shape="1653.94,1183.90 1650.84,1166.18 1639.40,1168.15 1642.50,1185.88 1653.94,1183.90"/>
    <poly id="346484198" type="building" color="255,230,230" fill="1" layer="-1.00" shape="1505.88,1136.60 1513.00,1136.13 1512.45,1128.07 1505.34,1128.53 1505.88,1136.60"/>
    <poly id="346491681" type="building" color="255,230,230" fill="1" layer="-1.00" shape="1769.18,1109.29 1779.91,1108.22 1778.99,1098.97 1768.24,1100.04 1769.18,1109.29"/>
    <poly id="346491696" type="building" color="255,230,230" fill="1" layer="-1.00" shape="1772.51,1129.70 1784.13,1128.31 1782.68,1116.37 1771.05,1117.78 1772.51,1129.70"/>
    <poly id="346491713" type="building" color="255,230,230" fill="1" layer="-1.00" shape="1775.86,1156.40 1789.06,1154.03 1787.51,1145.47 1774.31,1147.85 1775.86,1156.40"/>
    <poly id="346537314" type="building" color="255,230,230" fill="1" layer="-1.00" shape="1823.97,918.74 1833.22,918.09 1832.38,906.02 1823.11,906.65 1823.97,918.74"/>
    <poly id="346537318" type="building" color="255,230,230" fill="1" layer="-1.00" shape="1529.93,917.02 1530.71,904.72 1521.00,904.11 1520.23,916.42 1529.93,917.02"/>
    <poly id="346537328" type="building" color="255,230,230" fill="1" layer="-1.00" shape="1560.30,982.08 1561.25,968.08 1551.59,967.44 1550.64,981.42 1560.30,982.08"/>
    <poly id="346537330" type="building" color="255,230,230" fill="1" layer="-1.00" shape="1447.12,988.19 1459.29,989.38 1460.65,975.72 1448.48,974.52 1447.12,988.19"/>
    <poly id="346537340" type="building" color="255,230,230" fill="1" layer="-1.00" shape="1799.12,1073.83 1804.48,1072.76 1802.40,1062.54 1797.05,1063.60 1799.12,1073.83"/>
    <poly id="346537350" type="building" color="255,230,230" fill="1" layer="-1.00" shape="1520.95,1019.30 1523.52,1003.16 1513.58,1001.60 1511.00,1017.73 1520.95,1019.30"/>
    <poly id="346537355" type="building" color="255,230,230" fill="1" layer="-1.00" shape="1622.51,974.58 1623.80,960.93 1616.30,960.23 1615.02,973.88 1622.51,974.58"/>
    <poly id="346537357" type="building" color="255,230,230" fill="1" layer="-1.00" shape="1449.73,938.97 1461.79,939.83 1462.35,931.88 1450.30,931.03 1449.73,938.97"/>
    <poly id="346537367" type="building" color="255,230,230" fill="1" layer="-1.00" shape="1444.33,1011.77 1454.11,1012.28 1454.58,1003.40 1444.79,1002.90 1444.33,1011.77"/>
    <poly id="346537369" type="building" color="255,230,230" fill="1" layer="-1.00" shape="1453.67,927.20 1465.48,928.25 1466.31,919.10 1454.50,918.04 1453.67,927.20"/>
    <poly id="346537387" type="building" color="255,230,230" fill="1" layer="-1.00" shape="1446.80,972.41 1460.97,972.88 1461.45,958.52 1447.29,958.06 1446.80,972.41"/>
    <poly id="346537396" type="building" color="255,230,230" fill="1" layer="-1.00" shape="1543.14,916.84 1543.91,904.86 1532.79,904.14 1532.01,916.13 1543.14,916.84"/>
    <poly id="346537398" type="building" color="255,230,230" fill="1" layer="-1.00" shape="1519.81,901.63 1530.38,902.64 1531.20,894.11 1520.62,893.11 1519.81,901.63"/>
    <poly id="346537428" type="building" color="255,230,230" fill="1" layer="-1.00" shape="1524.02,1021.60 1534.74,1022.43 1535.40,1013.90 1524.68,1013.07 1524.02,1021.60"/>
    <poly id="346537460" type="building" color="255,230,230" fill="1" layer="-1.00" shape="1532.60,902.40 1545.96,902.68 1546.12,894.39 1532.76,894.13 1532.60,902.40"/>
    <poly id="346537473" type="building" color="255,230,230" fill="1" layer="-1.00" shape="1464.65,969.22 1474.44,969.96 1475.39,957.52 1465.61,956.77 1464.65,969.22"/>
    <poly id="346537518" type="building" color="255,230,230" fill="1" layer="-1.00" shape="1498.39,1018.49 1510.21,1020.20 1512.93,1001.68 1501.10,999.97 1498.39,1018.49"/>
    <poly id="346537523" type="building" color="255,230,230" fill="1" layer="-1.00" shape="1467.85,927.03 1481.04,928.22 1482.25,914.78 1469.07,913.60 1467.85,927.03"/>
    <poly id="346537524" type="building" color="255,230,230" fill="1" layer="-1.00" shape="1450.76,949.53 1463.79,949.82 1463.96,942.59 1450.92,942.28 1450.76,949.53"/>
    <poly id="346537533" type="building" color="255,230,230" fill="1" layer="-1.00" shape="1547.48,999.81 1559.29,1000.74 1560.53,985.24 1548.70,984.30 1547.48,999.81"/>
    <poly id="346537538" type="building" color="255,230,230" fill="1" layer="-1.00" shape="1477.01,972.72 1487.63,973.02 1488.01,959.10 1477.39,958.81 1477.01,972.72"/>
    <poly id="346537546" type="building" color="255,230,230" fill="1" layer="-1.00" shape="1489.77,952.43 1490.32,937.87 1481.26,937.53 1481.15,940.24 1477.55,940.10 1477.10,951.96 1489.77,952.43"/>