<?xml version="1.0" encoding="UTF-8"?>

<!-- generated on Fri Jun 30 16:28:43 2017 by SUMO netconvert Version 0.28.0
<?xml version="1.0" encoding="UTF-8"?>

<configuration xmlns:xsi="http://www.w3.org/2001/XMLSchema-instance" xsi:noNamespaceSchemaLocation="http://sumo.dlr.de/xsd/netconvertConfiguration.xsd">

    <input>
        <osm-files value="bangalore.osm"/>
    </input>

    <output>
        <output-file value="bangalore.net.xml"/>
    </output>

    <projection>
        <proj.utm value="true"/>
    </projection>

</configuration>
-->

<net version="0.27" xmlns:xsi="http://www.w3.org/2001/XMLSchema-instance" xsi:noNamespaceSchemaLocation="http://sumo.dlr.de/xsd/net_file.xsd">

    <location netOffset="-790575.90,-1441143.24" convBoundary="0.00,0.00,632.91,1306.40" origBoundary="77.678924,13.022390,77.684794,13.034187" projParameter="+proj=utm +zone=43 +ellps=WGS84 +datum=WGS84 +units=m +no_defs"/>

    <type id="highway.bridleway" priority="1" numLanes="1" speed="2.78" allow="pedestrian" oneway="1" width="2.00"/>
    <type id="highway.bus_guideway" priority="1" numLanes="1" speed="8.33" allow="bus" oneway="1"/>
    <type id="highway.cycleway" priority="1" numLanes="1" speed="5.56" allow="bicycle" oneway="0" width="1.00"/>
    <type id="highway.footway" priority="1" numLanes="1" speed="8.33" allow="pedestrian" oneway="1" width="2.00"/>
    <type id="highway.ford" priority="1" numLanes="1" speed="2.78" allow="army" oneway="0"/>
    <type id="highway.living_street" priority="3" numLanes="1" speed="2.78" disallow="tram rail_urban rail rail_electric ship" oneway="0"/>
    <type id="highway.motorway" priority="13" numLanes="2" speed="44.44" allow="private emergency authority army vip passenger hov taxi bus coach delivery truck trailer motorcycle evehicle custom1 custom2" oneway="1"/>
    <type id="highway.motorway_link" priority="12" numLanes="1" speed="22.22" allow="private emergency authority army vip passenger hov taxi bus coach delivery truck trailer motorcycle evehicle custom1 custom2" oneway="1"/>
    <type id="highway.path" priority="1" numLanes="1" speed="2.78" allow="bicycle pedestrian" oneway="1" width="2.00"/>
    <type id="highway.pedestrian" priority="1" numLanes="1" speed="8.33" allow="pedestrian" oneway="1" width="2.00"/>
    <type id="highway.primary" priority="9" numLanes="2" speed="27.78" disallow="tram rail_urban rail rail_electric ship" oneway="0"/>
    <type id="highway.primary_link" priority="8" numLanes="1" speed="22.22" disallow="tram rail_urban rail rail_electric ship" oneway="0"/>
    <type id="highway.raceway" priority="14" numLanes="2" speed="83.33" allow="vip" oneway="0"/>
    <type id="highway.residential" priority="4" numLanes="1" speed="13.89" disallow="tram rail_urban rail rail_electric ship" oneway="0"/>
    <type id="highway.secondary" priority="7" numLanes="2" speed="27.78" disallow="tram rail_urban rail rail_electric ship" oneway="0"/>
    <type id="highway.secondary_link" priority="6" numLanes="1" speed="22.22" disallow="tram rail_urban rail rail_electric ship" oneway="0"/>
    <type id="highway.service" priority="2" numLanes="1" speed="5.56" allow="delivery bicycle pedestrian" oneway="0"/>
    <type id="highway.services" priority="1" numLanes="1" speed="8.33" disallow="tram rail_urban rail rail_electric ship" oneway="0"/>
    <type id="highway.stairs" priority="1" numLanes="1" speed="1.39" allow="pedestrian" oneway="1" width="2.00"/>
    <type id="highway.step" priority="1" numLanes="1" speed="1.39" allow="pedestrian" oneway="1" width="2.00"/>
    <type id="highway.steps" priority="1" numLanes="1" speed="1.39" allow="pedestrian" oneway="1" width="2.00"/>
    <type id="highway.tertiary" priority="6" numLanes="1" speed="22.22" disallow="tram rail_urban rail rail_electric ship" oneway="0"/>
    <type id="highway.tertiary_link" priority="5" numLanes="1" speed="22.22" disallow="tram rail_urban rail rail_electric ship" oneway="0"/>
    <type id="highway.track" priority="1" numLanes="1" speed="5.56" disallow="tram rail_urban rail rail_electric ship" oneway="0"/>
    <type id="highway.trunk" priority="11" numLanes="2" speed="27.78" disallow="tram rail_urban rail rail_electric bicycle pedestrian ship" oneway="0"/>
    <type id="highway.trunk_link" priority="10" numLanes="1" speed="22.22" disallow="tram rail_urban rail rail_electric bicycle pedestrian ship" oneway="0"/>
    <type id="highway.unclassified" priority="5" numLanes="1" speed="13.89" disallow="tram rail_urban rail rail_electric ship" oneway="0"/>
    <type id="highway.unsurfaced" priority="1" numLanes="1" speed="8.33" disallow="tram rail_urban rail rail_electric ship" oneway="0"/>
    <type id="railway.light_rail" priority="15" numLanes="1" speed="27.78" allow="rail_urban" oneway="1"/>
    <type id="railway.preserved" priority="15" numLanes="1" speed="27.78" allow="rail" oneway="1"/>
    <type id="railway.rail" priority="15" numLanes="1" speed="83.33" allow="rail rail_electric" oneway="1"/>
    <type id="railway.subway" priority="15" numLanes="1" speed="27.78" allow="rail_urban" oneway="1"/>
    <type id="railway.tram" priority="15" numLanes="1" speed="13.89" allow="tram" oneway="1"/>

    <edge id=":1570881873_0" function="internal">
        <lane id=":1570881873_0_0" index="0" disallow="tram rail_urban rail rail_electric ship" speed="13.89" length="9.07" shape="22.61,445.34 22.16,436.28"/>
    </edge>
    <edge id=":1570881873_1" function="internal">
        <lane id=":1570881873_1_0" index="0" disallow="tram rail_urban rail rail_electric ship" speed="13.89" length="4.96" shape="22.61,445.34 22.99,442.56 24.08,440.70"/>
    </edge>
    <edge id=":1570881873_2" function="internal">
        <lane id=":1570881873_2_0" index="0" disallow="tram rail_urban rail rail_electric ship" speed="13.89" length="2.41" shape="22.61,445.34 23.43,444.10 24.25,443.68"/>
    </edge>
    <edge id=":1570881873_9" function="internal">
        <lane id=":1570881873_9_0" index="0" speed="13.89" length="5.28" shape="24.08,440.70 24.16,440.56 26.12,439.33 28.89,438.87"/>
    </edge>
    <edge id=":1570881873_10" function="internal">
        <lane id=":1570881873_10_0" index="0" speed="13.89" length="2.41" shape="24.25,443.68 25.08,444.08 25.91,445.32"/>
    </edge>
    <edge id=":1570881873_3" function="internal">
        <lane id=":1570881873_3_0" index="0" disallow="tram rail_urban rail rail_electric ship" speed="13.89" length="4.98" shape="28.96,442.17 27.62,442.40 26.66,442.99 26.09,443.97 25.91,445.32"/>
    </edge>
    <edge id=":1570881873_4" function="internal">
        <lane id=":1570881873_4_0" index="0" disallow="tram rail_urban rail rail_electric ship" speed="13.89" length="10.11" shape="28.96,442.17 26.20,441.86 24.14,440.77 22.80,438.91 22.16,436.28"/>
    </edge>
    <edge id=":1570881873_5" function="internal">
        <lane id=":1570881873_5_0" index="0" disallow="tram rail_urban rail rail_electric ship" speed="13.89" length="4.82" shape="28.96,442.17 27.71,441.38 27.27,440.56 27.67,439.73 28.89,438.87"/>
    </edge>
    <edge id=":1570881873_6" function="internal">
        <lane id=":1570881873_6_0" index="0" disallow="tram rail_urban rail rail_electric ship" speed="13.89" length="5.06" shape="25.44,435.97 25.76,437.27 26.45,438.18 27.49,438.72 28.89,438.87"/>
    </edge>
    <edge id=":1570881873_7" function="internal">
        <lane id=":1570881873_7_0" index="0" disallow="tram rail_urban rail rail_electric ship" speed="13.89" length="9.36" shape="25.44,435.97 25.91,445.32"/>
    </edge>
    <edge id=":1570881873_8" function="internal">
        <lane id=":1570881873_8_0" index="0" disallow="tram rail_urban rail rail_electric ship" speed="13.89" length="2.54" shape="25.44,435.97 24.74,437.28 23.96,437.77 23.83,437.72"/>
    </edge>
    <edge id=":1570881873_11" function="internal">
        <lane id=":1570881873_11_0" index="0" speed="13.89" length="2.28" shape="23.83,437.72 23.10,437.43 22.16,436.28"/>
    </edge>
    <edge id=":1570881882_0" function="internal">
        <lane id=":1570881882_0_0" index="0" disallow="tram rail_urban rail rail_electric ship" speed="13.89" length="4.82" shape="34.31,1306.29 33.57,1307.58 32.78,1308.05 31.93,1307.69 31.02,1306.51"/>
    </edge>
    <edge id=":544376615_0" function="internal">
        <lane id=":544376615_0_0" index="0" disallow="tram rail_urban rail rail_electric ship" speed="13.89" length="4.82" shape="-1.64,0.16 -0.94,-1.15 -0.16,-1.64 0.70,-1.31 1.64,-0.16"/>
    </edge>
    <edge id=":544376747_0" function="internal">
        <lane id=":544376747_0_0" index="0" disallow="tram rail_urban rail rail_electric ship" speed="13.89" length="4.82" shape="632.76,405.29 634.07,406.01 634.55,406.79 634.21,407.65 633.05,408.58"/>
    </edge>
    <edge id=":544376753_0" function="internal">
        <lane id=":544376753_0_0" index="0" disallow="tram rail_urban rail rail_electric ship" speed="13.89" length="9.50" shape="133.30,439.77 123.79,439.99"/>
    </edge>
    <edge id=":544376753_1" function="internal">
        <lane id=":544376753_1_0" index="0" disallow="tram rail_urban rail rail_electric ship" speed="13.89" length="5.24" shape="133.30,439.77 130.51,439.44 128.49,438.28 128.43,438.18"/>
    </edge>
    <edge id=":544376753_2" function="internal">
        <lane id=":544376753_2_0" index="0" disallow="tram rail_urban rail rail_electric ship" speed="13.89" length="2.41" shape="133.30,439.77 132.04,438.98 131.61,438.16"/>
    </edge>
    <edge id=":544376753_9" function="internal">
        <lane id=":544376753_9_0" index="0" speed="13.89" length="5.08" shape="128.43,438.18 127.23,436.30 126.72,433.50"/>
    </edge>
    <edge id=":544376753_10" function="internal">
        <lane id=":544376753_10_0" index="0" speed="13.89" length="2.41" shape="131.61,438.16 132.00,437.33 133.22,436.47"/>
    </edge>
    <edge id=":544376753_3" function="internal">
        <lane id=":544376753_3_0" index="0" disallow="tram rail_urban rail rail_electric ship" speed="13.89" length="5.06" shape="130.02,433.37 130.27,434.75 130.88,435.73 131.87,436.31 133.22,436.47"/>
    </edge>
    <edge id=":544376753_4" function="internal">
        <lane id=":544376753_4_0" index="0" disallow="tram rail_urban rail rail_electric ship" speed="13.89" length="10.40" shape="130.02,433.37 129.73,436.21 128.59,438.26 126.61,439.52 123.79,439.99"/>
    </edge>
    <edge id=":544376753_5" function="internal">
        <lane id=":544376753_5_0" index="0" disallow="tram rail_urban rail rail_electric ship" speed="13.89" length="4.82" shape="130.02,433.37 129.24,434.64 128.44,435.08 127.59,434.70 126.72,433.50"/>
    </edge>
    <edge id=":544376753_6" function="internal">
        <lane id=":544376753_6_0" index="0" disallow="tram rail_urban rail rail_electric ship" speed="13.89" length="5.02" shape="123.72,436.69 125.08,436.47 126.03,435.86 126.58,434.87 126.72,433.50"/>
    </edge>
    <edge id=":544376753_7" function="internal">
        <lane id=":544376753_7_0" index="0" disallow="tram rail_urban rail rail_electric ship" speed="13.89" length="9.50" shape="123.72,436.69 133.22,436.47"/>
    </edge>
    <edge id=":544376753_8" function="internal">
        <lane id=":544376753_8_0" index="0" disallow="tram rail_urban rail rail_electric ship" speed="13.89" length="2.41" shape="123.72,436.69 124.98,437.49 125.41,438.31"/>
    </edge>
    <edge id=":544376753_11" function="internal">
        <lane id=":544376753_11_0" index="0" speed="13.89" length="2.41" shape="125.41,438.31 125.01,439.14 123.79,439.99"/>
    </edge>
    <edge id=":544376755_0" function="internal">
        <lane id=":544376755_0_0" index="0" disallow="tram rail_urban rail rail_electric ship" speed="13.89" length="5.14" shape="125.09,391.57 124.84,390.16 124.22,389.16 123.23,388.56 121.87,388.37"/>
    </edge>
    <edge id=":544376755_1" function="internal">
        <lane id=":544376755_1_0" index="0" disallow="tram rail_urban rail rail_electric ship" speed="13.89" length="9.72" shape="125.09,391.57 124.93,381.85"/>
    </edge>
    <edge id=":544376755_2" function="internal">
        <lane id=":544376755_2_0" index="0" disallow="tram rail_urban rail rail_electric ship" speed="13.89" length="10.45" shape="125.09,391.57 125.39,388.71 126.53,386.66 128.52,385.41 131.36,384.96"/>
    </edge>
    <edge id=":544376755_3" function="internal">
        <lane id=":544376755_3_0" index="0" disallow="tram rail_urban rail rail_electric ship" speed="13.89" length="4.82" shape="125.09,391.57 125.87,390.30 126.67,389.86 127.52,390.24 128.39,391.44"/>
    </edge>
    <edge id=":544376755_4" function="internal">
        <lane id=":544376755_4_0" index="0" disallow="tram rail_urban rail rail_electric ship" speed="13.89" length="5.03" shape="131.40,388.26 130.04,388.47 129.08,389.08 128.53,390.06 128.39,391.44"/>
    </edge>
    <edge id=":544376755_5" function="internal">
        <lane id=":544376755_5_0" index="0" disallow="tram rail_urban rail rail_electric ship" speed="13.89" length="9.54" shape="131.40,388.26 121.87,388.37"/>
    </edge>
    <edge id=":544376755_6" function="internal">
        <lane id=":544376755_6_0" index="0" disallow="tram rail_urban rail rail_electric ship" speed="13.89" length="5.22" shape="131.40,388.26 128.56,387.89 126.53,386.70"/>
    </edge>
    <edge id=":544376755_7" function="internal">
        <lane id=":544376755_7_0" index="0" disallow="tram rail_urban rail rail_electric ship" speed="13.89" length="2.41" shape="131.40,388.26 130.16,387.45 129.73,386.63"/>
    </edge>
    <edge id=":544376755_16" function="internal">
        <lane id=":544376755_16_0" index="0" speed="13.89" length="5.21" shape="126.53,386.70 125.32,384.69 124.93,381.85"/>
    </edge>
    <edge id=":544376755_17" function="internal">
        <lane id=":544376755_17_0" index="0" speed="13.89" length="2.41" shape="129.73,386.63 130.13,385.80 131.36,384.96"/>
    </edge>
    <edge id=":544376755_8" function="internal">
        <lane id=":544376755_8_0" index="0" disallow="tram rail_urban rail rail_electric ship" speed="13.89" length="5.04" shape="128.23,381.87 128.42,383.24 129.00,384.21 129.98,384.78 131.36,384.96"/>
    </edge>
    <edge id=":544376755_9" function="internal">
        <lane id=":544376755_9_0" index="0" disallow="tram rail_urban rail rail_electric ship" speed="13.89" length="9.57" shape="128.23,381.87 128.39,391.44"/>
    </edge>
    <edge id=":544376755_10" function="internal">
        <lane id=":544376755_10_0" index="0" disallow="tram rail_urban rail rail_electric ship" speed="13.89" length="10.34" shape="128.23,381.87 127.82,384.69 126.62,386.72 124.64,387.94 121.87,388.37"/>
    </edge>
    <edge id=":544376755_11" function="internal">
        <lane id=":544376755_11_0" index="0" disallow="tram rail_urban rail rail_electric ship" speed="13.89" length="4.82" shape="128.23,381.87 127.40,383.10 126.57,383.51 125.75,383.09 124.93,381.85"/>
    </edge>
    <edge id=":544376755_12" function="internal">
        <lane id=":544376755_12_0" index="0" disallow="tram rail_urban rail rail_electric ship" speed="13.89" length="5.08" shape="121.84,385.07 123.18,384.86 124.15,384.25 124.73,383.25 124.93,381.85"/>
    </edge>
    <edge id=":544376755_13" function="internal">
        <lane id=":544376755_13_0" index="0" disallow="tram rail_urban rail rail_electric ship" speed="13.89" length="9.52" shape="121.84,385.07 131.36,384.96"/>
    </edge>
    <edge id=":544376755_14" function="internal">
        <lane id=":544376755_14_0" index="0" disallow="tram rail_urban rail rail_electric ship" speed="13.89" length="5.14" shape="121.84,385.07 124.61,385.45 126.62,386.63"/>
    </edge>
    <edge id=":544376755_15" function="internal">
        <lane id=":544376755_15_0" index="0" disallow="tram rail_urban rail rail_electric ship" speed="13.89" length="2.41" shape="121.84,385.07 123.08,385.89 123.50,386.71"/>
    </edge>
    <edge id=":544376755_18" function="internal">
        <lane id=":544376755_18_0" index="0" speed="13.89" length="5.21" shape="126.62,386.63 127.88,388.63 128.39,391.44"/>
    </edge>
    <edge id=":544376755_19" function="internal">
        <lane id=":544376755_19_0" index="0" speed="13.89" length="2.41" shape="123.50,386.71 123.10,387.54 121.87,388.37"/>
    </edge>
    <edge id=":544376756_0" function="internal">
        <lane id=":544376756_0_0" index="0" disallow="tram rail_urban rail rail_electric ship" speed="13.89" length="9.90" shape="18.06,392.94 17.52,383.05"/>
    </edge>
    <edge id=":544376756_1" function="internal">
        <lane id=":544376756_1_0" index="0" disallow="tram rail_urban rail rail_electric ship" speed="13.89" length="5.60" shape="18.06,392.94 18.20,389.96 19.28,387.82 19.47,387.70"/>
    </edge>
    <edge id=":544376756_2" function="internal">
        <lane id=":544376756_2_0" index="0" disallow="tram rail_urban rail rail_electric ship" speed="13.89" length="2.53" shape="18.06,392.94 18.76,391.63 19.55,391.14 19.66,391.19"/>
    </edge>
    <edge id=":544376756_9" function="internal">
        <lane id=":544376756_9_0" index="0" speed="13.89" length="5.16" shape="19.47,387.70 21.30,386.52 24.25,386.07"/>
    </edge>
    <edge id=":544376756_10" function="internal">
        <lane id=":544376756_10_0" index="0" speed="13.89" length="2.29" shape="19.66,391.19 20.41,391.47 21.34,392.63"/>
    </edge>
    <edge id=":544376756_3" function="internal">
        <lane id=":544376756_3_0" index="0" disallow="tram rail_urban rail rail_electric ship" speed="13.89" length="5.10" shape="24.28,389.37 22.88,389.58 21.93,390.20 21.41,391.21 21.34,392.63"/>
    </edge>
    <edge id=":544376756_4" function="internal">
        <lane id=":544376756_4_0" index="0" disallow="tram rail_urban rail rail_electric ship" speed="13.89" length="10.55" shape="24.28,389.37 21.35,389.00 19.25,387.82 17.97,385.84 17.52,383.05"/>
    </edge>
    <edge id=":544376756_5" function="internal">
        <lane id=":544376756_5_0" index="0" disallow="tram rail_urban rail rail_electric ship" speed="13.89" length="4.82" shape="24.28,389.37 23.03,388.56 22.61,387.74 23.02,386.91 24.25,386.07"/>
    </edge>
    <edge id=":544376756_6" function="internal">
        <lane id=":544376756_6_0" index="0" disallow="tram rail_urban rail rail_electric ship" speed="13.89" length="5.24" shape="20.81,383.01 21.04,384.36 21.69,385.32 22.76,385.89 24.25,386.07"/>
    </edge>
    <edge id=":544376756_7" function="internal">
        <lane id=":544376756_7_0" index="0" disallow="tram rail_urban rail rail_electric ship" speed="13.89" length="9.63" shape="20.81,383.01 21.34,392.63"/>
    </edge>
    <edge id=":544376756_8" function="internal">
        <lane id=":544376756_8_0" index="0" disallow="tram rail_urban rail rail_electric ship" speed="13.89" length="2.41" shape="20.81,383.01 20.01,384.26 19.19,384.68"/>
    </edge>
    <edge id=":544376756_11" function="internal">
        <lane id=":544376756_11_0" index="0" speed="13.89" length="2.41" shape="19.19,384.68 18.36,384.28 17.52,383.05"/>
    </edge>
    <edge id=":567309180_0" function="internal">
        <lane id=":567309180_0_0" index="0" disallow="tram rail_urban rail rail_electric ship" speed="13.89" length="9.60" shape="313.16,429.77 303.59,430.51"/>
    </edge>
    <edge id=":567309180_1" function="internal">
        <lane id=":567309180_1_0" index="0" disallow="tram rail_urban rail rail_electric ship" speed="13.89" length="5.37" shape="313.16,429.77 310.28,429.61 308.17,428.56 308.10,428.46"/>
    </edge>
    <edge id=":567309180_2" function="internal">
        <lane id=":567309180_2_0" index="0" disallow="tram rail_urban rail rail_electric ship" speed="13.89" length="2.41" shape="313.16,429.77 311.86,429.06 311.38,428.27"/>
    </edge>
    <edge id=":567309180_9" function="internal">
        <lane id=":567309180_9_0" index="0" speed="13.89" length="5.12" shape="308.10,428.46 306.83,426.62 306.27,423.79"/>
    </edge>
    <edge id=":567309180_10" function="internal">
        <lane id=":567309180_10_0" index="0" speed="13.89" length="2.41" shape="311.38,428.27 311.72,427.41 312.88,426.49"/>
    </edge>
    <edge id=":567309180_3" function="internal">
        <lane id=":567309180_3_0" index="0" disallow="tram rail_urban rail rail_electric ship" speed="13.89" length="5.04" shape="309.57,423.61 309.84,424.97 310.48,425.90 311.49,426.41 312.88,426.49"/>
    </edge>
    <edge id=":567309180_4" function="internal">
        <lane id=":567309180_4_0" index="0" disallow="tram rail_urban rail rail_electric ship" speed="13.89" length="10.38" shape="309.57,423.61 309.32,426.47 308.25,428.57 306.33,429.92 303.59,430.51"/>
    </edge>
    <edge id=":567309180_5" function="internal">
        <lane id=":567309180_5_0" index="0" disallow="tram rail_urban rail rail_electric ship" speed="13.89" length="4.82" shape="309.57,423.61 308.81,424.89 308.01,425.35 307.16,424.98 306.27,423.79"/>
    </edge>
    <edge id=":567309180_6" function="internal">
        <lane id=":567309180_6_0" index="0" disallow="tram rail_urban rail rail_electric ship" speed="13.89" length="5.11" shape="303.37,427.21 304.70,426.92 305.63,426.25 306.15,425.21 306.27,423.79"/>
    </edge>
    <edge id=":567309180_7" function="internal">
        <lane id=":567309180_7_0" index="0" disallow="tram rail_urban rail rail_electric ship" speed="13.89" length="9.53" shape="303.37,427.21 312.88,426.49"/>
    </edge>
    <edge id=":567309180_8" function="internal">
        <lane id=":567309180_8_0" index="0" disallow="tram rail_urban rail rail_electric ship" speed="13.89" length="2.41" shape="303.37,427.21 304.66,427.95 305.13,428.75"/>
    </edge>
    <edge id=":567309180_11" function="internal">
        <lane id=":567309180_11_0" index="0" speed="13.89" length="2.41" shape="305.13,428.75 304.77,429.60 303.59,430.51"/>
    </edge>
    <edge id=":567309182_0" function="internal">
        <lane id=":567309182_0_0" index="0" disallow="tram rail_urban rail rail_electric ship" speed="13.89" length="5.05" shape="304.39,388.80 304.13,387.48 303.48,386.54 302.47,385.98 301.08,385.81"/>
    </edge>
    <edge id=":567309182_1" function="internal">
        <lane id=":567309182_1_0" index="0" disallow="tram rail_urban rail rail_electric ship" speed="13.89" length="9.43" shape="304.39,388.80 304.09,379.37"/>
    </edge>
    <edge id=":567309182_2" function="internal">
        <lane id=":567309182_2_0" index="0" disallow="tram rail_urban rail rail_electric ship" speed="13.89" length="2.41" shape="304.39,388.80 305.15,387.52 305.95,387.07"/>
    </edge>
    <edge id=":567309182_9" function="internal">
        <lane id=":567309182_9_0" index="0" speed="13.89" length="2.41" shape="305.95,387.07 306.80,387.43 307.69,388.63"/>
    </edge>
    <edge id=":567309182_3" function="internal">
        <lane id=":567309182_3_0" index="0" disallow="tram rail_urban rail rail_electric ship" speed="13.89" length="9.29" shape="307.39,379.34 307.69,388.63"/>
    </edge>
    <edge id=":567309182_4" function="internal">
        <lane id=":567309182_4_0" index="0" disallow="tram rail_urban rail rail_electric ship" speed="13.89" length="5.15" shape="307.39,379.34 307.02,382.14 305.85,384.15"/>
    </edge>
    <edge id=":567309182_5" function="internal">
        <lane id=":567309182_5_0" index="0" disallow="tram rail_urban rail rail_electric ship" speed="13.89" length="2.41" shape="307.39,379.34 306.58,380.58 305.76,381.01"/>
    </edge>
    <edge id=":567309182_10" function="internal">
        <lane id=":567309182_10_0" index="0" speed="13.89" length="5.15" shape="305.85,384.15 303.87,385.37 301.08,385.81"/>
    </edge>
    <edge id=":567309182_11" function="internal">
        <lane id=":567309182_11_0" index="0" speed="13.89" length="2.41" shape="305.76,381.01 304.93,380.60 304.09,379.37"/>
    </edge>
    <edge id=":567309182_6" function="internal">
        <lane id=":567309182_6_0" index="0" disallow="tram rail_urban rail rail_electric ship" speed="13.89" length="5.00" shape="301.03,382.51 302.38,382.30 303.34,381.71 303.91,380.73 304.09,379.37"/>
    </edge>
    <edge id=":567309182_7" function="internal">
        <lane id=":567309182_7_0" index="0" disallow="tram rail_urban rail rail_electric ship" speed="13.89" length="10.22" shape="301.03,382.51 303.82,382.86 305.86,384.00 307.15,385.92 307.69,388.63"/>
    </edge>
    <edge id=":567309182_8" function="internal">
        <lane id=":567309182_8_0" index="0" disallow="tram rail_urban rail rail_electric ship" speed="13.89" length="4.82" shape="301.03,382.51 302.28,383.32 302.70,384.14 302.30,384.97 301.08,385.81"/>
    </edge>
    <edge id=":567309184_0" function="internal">
        <lane id=":567309184_0_0" index="0" disallow="tram rail_urban rail rail_electric ship" speed="13.89" length="5.05" shape="303.73,348.19 303.51,346.84 302.91,345.88 301.92,345.31 300.53,345.14"/>
    </edge>
    <edge id=":567309184_1" function="internal">
        <lane id=":567309184_1_0" index="0" disallow="tram rail_urban rail rail_electric ship" speed="13.89" length="9.54" shape="303.73,348.19 303.49,338.65"/>
    </edge>
    <edge id=":567309184_2" function="internal">
        <lane id=":567309184_2_0" index="0" disallow="tram rail_urban rail rail_electric ship" speed="13.89" length="2.41" shape="303.73,348.19 304.54,346.95 305.36,346.52"/>
    </edge>
    <edge id=":567309184_9" function="internal">
        <lane id=":567309184_9_0" index="0" speed="13.89" length="2.41" shape="305.36,346.52 306.19,346.93 307.03,348.16"/>
    </edge>
    <edge id=":567309184_3" function="internal">
        <lane id=":567309184_3_0" index="0" disallow="tram rail_urban rail rail_electric ship" speed="13.89" length="9.63" shape="306.79,338.53 307.03,348.16"/>
    </edge>
    <edge id=":567309184_4" function="internal">
        <lane id=":567309184_4_0" index="0" disallow="tram rail_urban rail rail_electric ship" speed="13.89" length="5.38" shape="306.79,338.53 306.49,341.38 305.35,343.43 305.21,343.52"/>
    </edge>
    <edge id=":567309184_5" function="internal">
        <lane id=":567309184_5_0" index="0" disallow="tram rail_urban rail rail_electric ship" speed="13.89" length="2.41" shape="306.79,338.53 306.01,339.79 305.20,340.24"/>
    </edge>
    <edge id=":567309184_10" function="internal">
        <lane id=":567309184_10_0" index="0" speed="13.89" length="5.05" shape="305.21,343.52 303.36,344.68 300.53,345.14"/>
    </edge>
    <edge id=":567309184_11" function="internal">
        <lane id=":567309184_11_0" index="0" speed="13.89" length="2.41" shape="305.20,340.24 304.36,339.86 303.49,338.65"/>
    </edge>
    <edge id=":567309184_6" function="internal">
        <lane id=":567309184_6_0" index="0" disallow="tram rail_urban rail rail_electric ship" speed="13.89" length="5.03" shape="300.47,341.84 301.84,341.62 302.79,341.02 303.34,340.03 303.49,338.65"/>
    </edge>
    <edge id=":567309184_7" function="internal">
        <lane id=":567309184_7_0" index="0" disallow="tram rail_urban rail rail_electric ship" speed="13.89" length="10.39" shape="300.47,341.84 303.31,342.19 305.35,343.36 306.59,345.35 307.03,348.16"/>
    </edge>
    <edge id=":567309184_8" function="internal">
        <lane id=":567309184_8_0" index="0" disallow="tram rail_urban rail rail_electric ship" speed="13.89" length="4.82" shape="300.47,341.84 301.73,342.64 302.15,343.46 301.76,344.29 300.53,345.14"/>
    </edge>
    <edge id=":567309186_0" function="internal">
        <lane id=":567309186_0_0" index="0" disallow="tram rail_urban rail rail_electric ship" speed="13.89" length="4.82" shape="302.62,266.53 303.45,265.31 304.28,264.90 305.10,265.32 305.92,266.57"/>
    </edge>
    <edge id=":567309218_0" function="internal">
        <lane id=":567309218_0_0" index="0" disallow="tram rail_urban rail rail_electric ship" speed="13.89" length="9.20" shape="14.51,159.02 14.10,149.83"/>
    </edge>
    <edge id=":567309218_1" function="internal">
        <lane id=":567309218_1_0" index="0" disallow="tram rail_urban rail rail_electric ship" speed="13.89" length="5.03" shape="14.51,159.02 14.87,156.32 16.02,154.32"/>
    </edge>
    <edge id=":567309218_2" function="internal">
        <lane id=":567309218_2_0" index="0" disallow="tram rail_urban rail rail_electric ship" speed="13.89" length="2.41" shape="14.51,159.02 15.32,157.78 16.14,157.35"/>
    </edge>
    <edge id=":567309218_9" function="internal">
        <lane id=":567309218_9_0" index="0" speed="13.89" length="5.14" shape="16.02,154.32 17.97,153.03 20.71,152.45"/>
    </edge>
    <edge id=":567309218_10" function="internal">
        <lane id=":567309218_10_0" index="0" speed="13.89" length="2.41" shape="16.14,157.35 16.97,157.75 17.81,158.98"/>
    </edge>
    <edge id=":567309218_3" function="internal">
        <lane id=":567309218_3_0" index="0" disallow="tram rail_urban rail rail_electric ship" speed="13.89" length="5.08" shape="20.95,155.74 19.56,156.03 18.57,156.67 17.99,157.65 17.81,158.98"/>
    </edge>
    <edge id=":567309218_4" function="internal">
        <lane id=":567309218_4_0" index="0" disallow="tram rail_urban rail rail_electric ship" speed="13.89" length="10.32" shape="20.95,155.74 18.13,155.55 16.05,154.50 14.71,152.59 14.10,149.83"/>
    </edge>
    <edge id=":567309218_5" function="internal">
        <lane id=":567309218_5_0" index="0" disallow="tram rail_urban rail rail_electric ship" speed="13.89" length="4.82" shape="20.95,155.74 19.66,155.01 19.19,154.22 19.54,153.36 20.71,152.45"/>
    </edge>
    <edge id=":567309218_6" function="internal">
        <lane id=":567309218_6_0" index="0" disallow="tram rail_urban rail rail_electric ship" speed="13.89" length="5.00" shape="17.39,149.59 17.68,150.92 18.34,151.85 19.34,152.36 20.71,152.45"/>
    </edge>
    <edge id=":567309218_7" function="internal">
        <lane id=":567309218_7_0" index="0" disallow="tram rail_urban rail rail_electric ship" speed="13.89" length="9.40" shape="17.39,149.59 17.81,158.98"/>
    </edge>
    <edge id=":567309218_8" function="internal">