<?xml version="1.0" encoding="UTF-8"?>

<!-- generated on Tue Jun 27 14:02:49 2017 by SUMO polyconvert Version 0.28.0
<?xml version="1.0" encoding="UTF-8"?>

<configuration xmlns:xsi="http://www.w3.org/2001/XMLSchema-instance" xsi:noNamespaceSchemaLocation="http://sumo.dlr.de/xsd/polyconvertConfiguration.xsd">

    <input>
        <net-file value="bangalore.net.xml"/>
        <osm-files value="bangalore.osm"/>
        <type-file value="typemap.xml"/>
    </input>

    <output>
        <output-file value="bangalore.poly.xml"/>
    </output>

    <processing>
        <poi-layer-offset value="5"/>
    </processing>

</configuration>
-->

<additional xmlns:xsi="http://www.w3.org/2001/XMLSchema-instance" xsi:noNamespaceSchemaLocation="http://sumo.dlr.de/xsd/additional_file.xsd">
    <location netOffset="-792537.21,-1439175.19" convBoundary="-8066.49,-1001.49,1904.68,5112.26" origBoundary="77.622976,12.995245,77.714404,13.051361" projParameter="+proj=utm +zone=43 +ellps=WGS84 +datum=WGS84 +units=m +no_defs"/>

    <poly id="121983169" type="building" color="255,230,230" fill="1" layer="-1.00" shape="1301.58,1215.11 1345.51,1220.17 1356.55,1125.53 1312.62,1120.46 1301.58,1215.11"/>
    <poly id="252087030" type="amenity" color="237,199,199" fill="1" layer="-1.00" shape="819.33,738.97 817.19,702.18 869.41,701.73 870.55,737.50 893.89,735.24 895.92,782.61 819.33,738.97"/>
    <poly id="252087030#1" type="building" color="255,230,230" fill="1" layer="-1.00" shape="819.33,738.97 817.19,702.18 869.41,701.73 870.55,737.50 893.89,735.24 895.92,782.61 819.33,738.97"/>
    <poly id="346137867" type="building" color="255,230,230" fill="1" layer="-1.00" shape="1121.97,744.03 1125.85,744.05 1125.86,742.96 1121.94,742.94 1115.77,742.99 1115.74,741.77 1113.33,741.83 1113.39,744.78 1121.98,744.59 1121.97,744.03"/>
    <poly id="346137870" type="building" color="255,230,230" fill="1" layer="-1.00" shape="1139.46,750.76 1152.57,749.74 1152.51,748.88 1156.73,748.55 1156.25,742.48 1153.84,742.66 1153.79,742.08 1144.92,742.77 1145.06,744.55 1143.64,744.67 1143.73,745.84 1139.10,746.20 1139.46,750.76"/>
    <poly id="346137872" type="building" color="255,230,230" fill="1" layer="-1.00" shape="1158.41,760.15 1158.75,766.19 1157.88,766.23 1157.96,767.65 1162.77,767.39 1162.65,765.21 1164.01,765.13 1163.96,764.22 1168.44,763.96 1168.51,765.06 1171.66,764.88 1171.36,759.43 1158.41,760.15"/>
    <poly id="346137877" type="building" color="255,230,230" fill="1" layer="-1.00" shape="1249.33,960.23 1249.10,960.66 1252.23,962.26 1251.59,963.87 1260.87,967.62 1264.01,959.93 1254.71,956.19 1252.81,960.84 1250.36,959.58 1251.84,956.08 1250.17,955.38 1250.63,954.22 1249.23,953.68 1249.37,953.31 1248.13,952.82 1247.16,955.26 1246.37,954.95 1247.62,951.80 1252.79,953.82 1253.25,952.68 1244.02,949.05 1240.25,958.52 1246.34,960.92 1248.50,955.50 1249.67,955.97 1248.09,959.71 1249.33,960.23"/>
    <poly id="346137878" type="building" color="255,230,230" fill="1" layer="-1.00" shape="1128.18,870.66 1137.91,876.69 1142.48,869.39 1132.76,863.37 1128.18,870.66"/>
    <poly id="346137879" type="building" color="255,230,230" fill="1" layer="-1.00" shape="1316.82,769.40 1329.31,768.16 1328.53,760.37 1316.04,761.59 1316.82,769.40"/>
    <poly id="346137880" type="building" color="255,230,230" fill="1" layer="-1.00" shape="1162.87,875.28 1171.25,880.20 1174.17,875.29 1165.80,870.36 1162.87,875.28"/>
    <poly id="346137881" type="building" color="255,230,230" fill="1" layer="-1.00" shape="1200.64,759.08 1208.98,758.73 1208.64,751.12 1208.78,751.11 1200.31,751.48 1200.64,759.08"/>
    <poly id="346137882" type="building" color="255,230,230" fill="1" layer="-1.00" shape="1419.92,833.18 1424.73,833.40 1425.01,827.16 1420.20,826.93 1419.92,833.18"/>
    <poly id="346137883" type="building" color="255,230,230" fill="1" layer="-1.00" shape="1213.39,748.74 1226.44,747.92 1225.89,739.27 1212.84,740.10 1213.39,748.74"/>
    <poly id="346137884" type="building" color="255,230,230" fill="1" layer="-1.00" shape="1105.77,890.72 1109.18,892.63 1114.09,883.98 1110.68,882.08 1105.77,890.72"/>
    <poly id="346137885" type="building" color="255,230,230" fill="1" layer="-1.00" shape="1048.29,872.02 1051.98,874.06 1058.11,863.08 1054.41,861.05 1048.29,872.02"/>
    <poly id="346137886" type="building" color="255,230,230" fill="1" layer="-1.00" shape="1439.02,906.86 1446.23,906.71 1446.03,898.16 1438.82,898.32 1439.02,906.86"/>
    <poly id="346137887" type="building" color="255,230,230" fill="1" layer="-1.00" shape="1243.32,715.77 1250.62,714.72 1249.60,707.78 1242.31,708.83 1243.32,715.77"/>
    <poly id="346137888" type="building" color="255,230,230" fill="1" layer="-1.00" shape="1124.97,876.66 1135.45,882.35 1137.99,877.73 1127.52,872.04 1124.97,876.66"/>
    <poly id="346137891" type="building" color="255,230,230" fill="1" layer="-1.00" shape="1088.32,878.56 1095.82,882.43 1101.03,872.44 1093.53,868.57 1088.32,878.56"/>
    <poly id="346137892" type="building" color="255,230,230" fill="1" layer="-1.00" shape="1362.23,922.16 1365.80,922.60 1366.33,918.32 1362.77,917.87 1362.23,922.16"/>
    <poly id="346137893" type="building" color="255,230,230" fill="1" layer="-1.00" shape="1315.06,759.88 1326.57,758.88 1325.94,751.74 1314.42,752.73 1315.06,759.88"/>
    <poly id="346137894" type="building" color="255,230,230" fill="1" layer="-1.00" shape="1152.83,760.92 1156.93,760.84 1156.74,750.65 1152.66,750.73 1152.83,760.92"/>
    <poly id="346137895" type="building" color="255,230,230" fill="1" layer="-1.00" shape="1257.27,713.98 1268.85,713.79 1268.70,705.41 1257.12,705.61 1257.27,713.98"/>
    <poly id="346137896" type="building" color="255,230,230" fill="1" layer="-1.00" shape="1129.69,744.40 1133.52,744.44 1133.55,741.65 1129.72,741.61 1129.69,744.40"/>
    <poly id="346137897" type="building" color="255,230,230" fill="1" layer="-1.00" shape="1202.54,941.92 1213.78,942.85 1214.39,935.48 1203.15,934.56 1202.54,941.92"/>
    <poly id="346137898" type="building" color="255,230,230" fill="1" layer="-1.00" shape="1281.64,767.82 1293.86,766.52 1292.96,758.20 1280.75,759.50 1281.64,767.82"/>
    <poly id="346137899" type="building" color="255,230,230" fill="1" layer="-1.00" shape="1322.92,955.95 1326.64,956.56 1327.23,953.01 1323.50,952.41 1322.92,955.95"/>
    <poly id="346137900" type="building" color="255,230,230" fill="1" layer="-1.00" shape="1237.84,736.07 1237.03,720.53 1225.61,721.12 1226.42,736.66 1237.84,736.07"/>
    <poly id="346137902" type="building" color="255,230,230" fill="1" layer="-1.00" shape="1436.05,871.23 1443.90,870.97 1443.60,861.81 1435.75,862.07 1436.05,871.23"/>
    <poly id="346137903" type="building" color="255,230,230" fill="1" layer="-1.00" shape="1163.64,786.33 1175.67,786.06 1175.50,778.99 1163.47,779.26 1163.64,786.33"/>
    <poly id="346137904" type="building" color="255,230,230" fill="1" layer="-1.00" shape="1069.94,846.11 1077.04,834.11 1070.25,830.15 1063.16,842.15 1069.94,846.11"/>
    <poly id="346137905" type="building" color="255,230,230" fill="1" layer="-1.00" shape="1198.78,914.38 1212.17,914.74 1212.38,907.60 1198.98,907.23 1198.78,914.38"/>
    <poly id="346137906" type="building" color="255,230,230" fill="1" layer="-1.00" shape="1384.65,861.35 1391.54,861.42 1391.57,858.44 1384.69,858.37 1384.65,861.35"/>
    <poly id="346137907" type="building" color="255,230,230" fill="1" layer="-1.00" shape="1297.54,772.07 1309.35,771.00 1308.89,765.88 1297.08,766.95 1297.54,772.07"/>
    <poly id="346137908" type="building" color="255,230,230" fill="1" layer="-1.00" shape="1473.45,950.62 1478.08,950.50 1478.04,948.73 1473.40,948.85 1473.45,950.62"/>
    <poly id="346137910" type="building" color="255,230,230" fill="1" layer="-1.00" shape="1264.67,921.43 1263.32,928.16 1269.44,929.37 1270.79,922.64 1264.67,921.43"/>
    <poly id="346137911" type="building" color="255,230,230" fill="1" layer="-1.00" shape="1447.34,944.79 1453.42,943.97 1452.90,940.17 1446.82,940.99 1447.34,944.79"/>
    <poly id="346137912" type="building" color="255,230,230" fill="1" layer="-1.00" shape="1438.90,877.29 1441.26,877.26 1441.20,873.43 1438.86,873.46 1438.90,877.29"/>
    <poly id="346137913" type="building" color="255,230,230" fill="1" layer="-1.00" shape="1249.98,752.37 1261.55,751.47 1260.86,742.67 1249.28,743.57 1249.98,752.37"/>
    <poly id="346137914" type="building" color="255,230,230" fill="1" layer="-1.00" shape="1396.11,1015.98 1403.15,1016.85 1404.45,1006.41 1397.41,1005.54 1396.11,1015.98"/>
    <poly id="346137915" type="building" color="255,230,230" fill="1" layer="-1.00" shape="1092.12,857.22 1099.72,842.98 1085.69,835.58 1078.08,849.82 1092.12,857.22"/>
    <poly id="346137916" type="building" color="255,230,230" fill="1" layer="-1.00" shape="1228.23,923.92 1241.08,925.82 1242.39,917.13 1229.54,915.23 1228.23,923.92"/>
    <poly id="346137917" type="building" color="255,230,230" fill="1" layer="-1.00" shape="1193.30,741.83 1204.48,740.98 1203.93,733.76 1192.74,734.61 1193.30,741.83"/>
    <poly id="346137918" type="building" color="255,230,230" fill="1" layer="-1.00" shape="1191.37,730.14 1204.44,728.30 1202.41,714.16 1189.35,716.01 1191.37,730.14"/>
    <poly id="346137919" type="building" color="255,230,230" fill="1" layer="-1.00" shape="1465.67,949.46 1468.41,949.43 1468.40,947.84 1465.65,947.87 1465.67,949.46"/>
    <poly id="346137920" type="building" color="255,230,230" fill="1" layer="-1.00" shape="1414.71,877.19 1437.49,877.77 1437.62,872.90 1414.84,872.32 1414.71,877.19"/>
    <poly id="346137921" type="building" color="255,230,230" fill="1" layer="-1.00" shape="1451.00,831.88 1462.06,831.68 1461.79,817.73 1450.74,817.93 1451.00,831.88"/>
    <poly id="346137922" type="building" color="255,230,230" fill="1" layer="-1.00" shape="1253.77,928.65 1258.22,929.20 1259.09,922.38 1254.63,921.83 1253.77,928.65"/>
    <poly id="346137923" type="building" color="255,230,230" fill="1" layer="-1.00" shape="1115.43,740.70 1129.41,740.51 1129.31,733.09 1115.33,733.29 1115.43,740.70"/>
    <poly id="346137924" type="building" color="255,230,230" fill="1" layer="-1.00" shape="1423.16,866.36 1435.14,866.21 1435.01,857.53 1423.05,857.69 1423.16,866.36"/>
    <poly id="346137925" type="building" color="255,230,230" fill="1" layer="-1.00" shape="1161.72,746.82 1170.26,746.69 1170.11,737.78 1161.58,737.92 1161.72,746.82"/>
    <poly id="346137926" type="building" color="255,230,230" fill="1" layer="-1.00" shape="1286.80,768.76 1287.12,773.14 1294.82,772.58 1294.49,768.19 1286.80,768.76"/>
    <poly id="346137927" type="building" color="255,230,230" fill="1" layer="-1.00" shape="1162.36,775.03 1162.56,778.95 1172.65,778.41 1172.45,774.48 1162.36,775.03"/>
    <poly id="346137929" type="building" color="255,230,230" fill="1" layer="-1.00" shape="1440.36,932.79 1435.75,882.22 1416.54,881.85 1406.88,934.04 1440.36,932.79"/>
    <poly id="346137930" type="building" color="255,230,230" fill="1" layer="-1.00" shape="1443.43,924.65 1449.85,924.50 1449.67,915.57 1443.23,915.71 1443.43,924.65"/>
    <poly id="346137931" type="building" color="255,230,230" fill="1" layer="-1.00" shape="1243.06,939.14 1255.08,942.48 1257.10,935.33 1245.07,931.99 1243.06,939.14"/>
    <poly id="346137932" type="building" color="255,230,230" fill="1" layer="-1.00" shape="1409.72,1033.31 1415.46,1034.43 1416.27,1030.30 1410.53,1029.19 1409.72,1033.31"/>
    <poly id="346137933" type="building" color="255,230,230" fill="1" layer="-1.00" shape="1200.27,933.30 1213.63,933.93 1214.01,925.76 1200.65,925.13 1200.27,933.30"/>
    <poly id="346137934" type="building" color="255,230,230" fill="1" layer="-1.00" shape="1390.44,865.81 1391.84,865.83 1391.85,864.60 1390.45,864.58 1390.44,865.81"/>
    <poly id="346137937" type="building" color="255,230,230" fill="1" layer="-1.00" shape="1461.82,933.09 1469.79,932.27 1469.11,925.79 1461.14,926.62 1461.82,933.09"/>
    <poly id="346137938" type="building" color="255,230,230" fill="1" layer="-1.00" shape="1287.46,782.44 1294.99,782.36 1294.93,776.96 1287.41,777.03 1287.46,782.44"/>
    <poly id="346137940" type="building" color="255,230,230" fill="1" layer="-1.00" shape="1411.75,862.03 1422.81,862.04 1422.81,856.68 1411.76,856.69 1411.75,862.03"/>
    <poly id="346137941" type="building" color="255,230,230" fill="1" layer="-1.00" shape="1435.42,853.44 1443.80,852.61 1442.97,844.32 1434.60,845.14 1435.42,853.44"/>
    <poly id="346137942" type="building" color="255,230,230" fill="1" layer="-1.00" shape="1411.68,1047.66 1416.21,1048.11 1417.01,1040.11 1412.48,1039.65 1411.68,1047.66"/>
    <poly id="346137944" type="building" color="255,230,230" fill="1" layer="-1.00" shape="1397.42,839.43 1403.86,839.74 1404.14,833.86 1397.71,833.55 1397.42,839.43"/>
    <poly id="346137945" type="building" color="255,230,230" fill="1" layer="-1.00" shape="1201.95,923.28 1212.15,923.80 1212.48,917.25 1202.28,916.74 1201.95,923.28"/>
    <poly id="346137947" type="building" color="255,230,230" fill="1" layer="-1.00" shape="1405.40,951.61 1410.26,952.22 1411.71,940.95 1406.86,940.33 1405.40,951.61"/>
    <poly id="346137948" type="building" color="255,230,230" fill="1" layer="-1.00" shape="1446.64,939.76 1454.04,938.93 1453.41,933.35 1446.01,934.19 1446.64,939.76"/>
    <poly id="346137949" type="building" color="255,230,230" fill="1" layer="-1.00" shape="1391.18,862.46 1391.20,863.75 1392.37,863.74 1392.36,862.46 1391.18,862.46"/>
    <poly id="346137951" type="building" color="255,230,230" fill="1" layer="-1.00" shape="1437.20,861.08 1440.52,860.94 1440.27,854.28 1436.94,854.41 1437.20,861.08"/>
    <poly id="346137952" type="building" color="255,230,230" fill="1" layer="-1.00" shape="1463.07,905.85 1474.21,905.93 1474.24,901.02 1463.10,900.94 1463.07,905.85"/>
    <poly id="346137954" type="building" color="255,230,230" fill="1" layer="-1.00" shape="1421.00,999.20 1426.61,999.33 1426.66,996.64 1421.05,996.52 1421.00,999.20"/>
    <poly id="346137955" type="building" color="255,230,230" fill="1" layer="-1.00" shape="1165.06,757.78 1170.07,757.76 1170.06,754.22 1165.03,754.25 1165.06,757.78"/>
    <poly id="346137956" type="building" color="255,230,230" fill="1" layer="-1.00" shape="1159.40,882.33 1168.10,887.25 1170.80,882.53 1162.10,877.61 1159.40,882.33"/>
    <poly id="346137958" type="building" color="255,230,230" fill="1" layer="-1.00" shape="1402.99,975.67 1406.72,975.64 1406.65,970.00 1402.93,970.04 1402.99,975.67"/>
    <poly id="346137959" type="building" color="255,230,230" fill="1" layer="-1.00" shape="1226.51,756.86 1241.66,756.45 1241.43,748.28 1226.28,748.68 1226.51,756.86"/>
    <poly id="346137961" type="building" color="255,230,230" fill="1" layer="-1.00" shape="1405.80,995.29 1421.14,995.85 1421.54,985.12 1406.19,984.55 1405.80,995.29"/>
    <poly id="346137963" type="building" color="255,230,230" fill="1" layer="-1.00" shape="1222.81,737.32 1224.67,737.26 1224.61,735.41 1222.75,735.47 1222.81,737.32"/>
    <poly id="346137964" type="building" color="255,230,230" fill="1" layer="-1.00" shape="1163.57,772.20 1171.35,772.50 1171.59,766.25 1163.81,765.95 1163.57,772.20"/>
    <poly id="346137965" type="building" color="255,230,230" fill="1" layer="-1.00" shape="1153.63,892.24 1163.29,897.17 1167.46,889.10 1157.80,884.17 1153.63,892.24"/>
    <poly id="346137966" type="building" color="255,230,230" fill="1" layer="-1.00" shape="1414.83,855.84 1423.40,855.86 1423.41,846.83 1414.84,846.82 1414.83,855.84"/>
    <poly id="346137968" type="building" color="255,230,230" fill="1" layer="-1.00" shape="1098.32,898.28 1105.82,901.75 1108.28,896.46 1100.80,893.01 1098.32,898.28"/>
    <poly id="346137969" type="building" color="255,230,230" fill="1" layer="-1.00" shape="1458.00,920.89 1463.79,920.84 1463.77,918.80 1457.99,918.86 1458.00,920.89"/>
    <poly id="346137970" type="building" color="255,230,230" fill="1" layer="-1.00" shape="1344.11,998.82 1348.62,999.83 1349.35,996.61 1344.84,995.60 1344.11,998.82"/>
    <poly id="346137971" type="building" color="255,230,230" fill="1" layer="-1.00" shape="1453.90,963.45 1463.20,961.72 1462.48,957.92 1453.19,959.65 1453.90,963.45"/>
    <poly id="346137973" type="building" color="255,230,230" fill="1" layer="-1.00" shape="1210.72,713.63 1211.38,721.14 1224.28,720.03 1223.62,712.52 1210.72,713.63"/>
    <poly id="346137975" type="building" color="255,230,230" fill="1" layer="-1.00" shape="1161.06,753.08 1170.95,752.06 1170.70,749.74 1160.81,750.76 1161.06,753.08"/>
    <poly id="346137976" type="building" color="255,230,230" fill="1" layer="-1.00" shape="1214.51,736.70 1222.07,736.67 1222.04,730.05 1214.49,730.08 1214.51,736.70"/>
    <poly id="346137978" type="building" color="255,230,230" fill="1" layer="-1.00" shape="1114.35,891.14 1120.96,894.91 1126.12,885.97 1119.53,882.19 1114.35,891.14"/>
    <poly id="346137979" type="building" color="255,230,230" fill="1" layer="-1.00" shape="1336.83,971.45 1341.08,972.66 1342.49,967.77 1338.25,966.56 1336.83,971.45"/>
    <poly id="346137980" type="building" color="255,230,230" fill="1" layer="-1.00" shape="1313.34,745.50 1313.80,751.71 1324.10,750.93 1323.63,744.73 1313.34,745.50"/>
    <poly id="346137981" type="building" color="255,230,230" fill="1" layer="-1.00" shape="1213.93,724.87 1219.44,724.93 1219.47,722.19 1213.96,722.14 1213.93,724.87"/>
    <poly id="346137982" type="building" color="255,230,230" fill="1" layer="-1.00" shape="1461.13,917.79 1466.74,917.80 1466.74,911.71 1461.13,911.70 1461.13,917.79"/>
    <poly id="346137983" type="building" color="255,230,230" fill="1" layer="-1.00" shape="1148.39,866.09 1156.37,870.38 1159.62,864.41 1151.66,860.10 1148.39,866.09"/>
    <poly id="346137984" type="building" color="255,230,230" fill="1" layer="-1.00" shape="1183.59,762.69 1196.61,761.68 1195.92,752.94 1182.91,753.93 1183.59,762.69"/>
    <poly id="346137985" type="building" color="255,230,230" fill="1" layer="-1.00" shape="1375.17,986.05 1380.78,986.96 1381.79,980.85 1376.18,979.94 1375.17,986.05"/>
    <poly id="346137986" type="building" color="255,230,230" fill="1" layer="-1.00" shape="1418.66,821.53 1426.39,821.74 1426.54,816.20 1418.80,816.00 1418.66,821.53"/>
    <poly id="346137987" type="building" color="255,230,230" fill="1" layer="-1.00" shape="1310.52,736.14 1311.37,743.60 1321.18,742.50 1320.33,735.04 1310.52,736.14"/>
    <poly id="346137988" type="building" color="255,230,230" fill="1" layer="-1.00" shape="1115.75,765.30 1121.36,765.23 1121.26,755.07 1115.65,755.12 1115.75,765.30"/>
    <poly id="346137989" type="building" color="255,230,230" fill="1" layer="-1.00" shape="1439.65,887.48 1446.99,887.22 1446.70,879.27 1439.37,879.53 1439.65,887.48"/>
    <poly id="346137991" type="building" color="255,230,230" fill="1" layer="-1.00" shape="1147.15,787.81 1156.49,787.40 1156.18,780.35 1149.06,780.66 1149.25,785.10 1147.04,785.20 1147.15,787.81"/>
    <poly id="346137993" type="building" color="255,230,230" fill="1" layer="-1.00" shape="1186.06,917.45 1189.81,907.67 1183.69,905.36 1180.70,913.18 1183.30,914.17 1182.55,916.12 1186.06,917.45"/>
    <poly id="346137994" type="building" color="255,230,230" fill="1" layer="-1.00" shape="1232.50,776.76 1244.05,776.34 1243.87,771.41 1242.18,771.47 1241.99,766.18 1232.12,766.54 1232.50,776.76"/>
    <poly id="346137995" type="building" color="255,230,230" fill="1" layer="-1.00" shape="1157.35,748.49 1158.82,748.46 1158.75,745.20 1160.74,745.16 1160.69,742.50 1157.24,742.57 1157.35,748.49"/>
    <poly id="346137998" type="building" color="255,230,230" fill="1" layer="-1.00" shape="1227.62,949.22 1228.05,936.19 1222.35,936.00 1221.90,947.66 1223.81,947.66 1223.75,949.22 1227.62,949.22"/>
    <poly id="346137999" type="building" color="255,230,230" fill="1" layer="-1.00" shape="1468.48,960.20 1481.83,959.25 1481.32,951.90 1471.66,952.58 1471.75,953.89 1468.06,954.15 1468.48,960.20"/>
    <poly id="346138002" type="building" color="255,230,230" fill="1" layer="-1.00" shape="1217.98,767.14 1229.97,766.71 1229.72,760.08 1226.12,760.22 1226.04,758.11 1217.65,758.42 1217.98,767.14"/>
    <poly id="346138003" type="building" color="255,230,230" fill="1" layer="-1.00" shape="1130.43,751.27 1133.87,751.48 1134.22,746.12 1131.46,745.95 1131.17,750.47 1130.48,750.42 1130.43,751.27"/>
    <poly id="346138004" type="building" color="255,230,230" fill="1" layer="-1.00" shape="1432.72,807.78 1418.73,807.32 1418.53,813.53 1433.43,814.01 1433.55,810.57 1436.70,810.74 1436.88,807.21 1432.75,807.01 1432.72,807.78"/>
    <poly id="346138005" type="building" color="255,230,230" fill="1" layer="-1.00" shape="1096.86,882.30 1106.47,887.81 1107.50,886.05 1099.91,881.71 1100.48,880.72 1108.10,885.08 1108.66,884.10 1099.02,878.59 1096.86,882.30"/>
    <poly id="346138006" type="building" color="255,230,230" fill="1" layer="-1.00" shape="1128.38,750.58 1129.56,750.49 1129.30,747.17 1128.18,747.26 1128.13,746.26 1114.50,747.03 1114.84,753.22 1128.49,752.46 1128.38,750.58"/>
    <poly id="346138008" type="building" color="255,230,230" fill="1" layer="-1.00" shape="1142.97,739.55 1138.12,739.69 1138.26,744.16 1143.65,743.99 1143.57,741.54 1155.37,741.38 1155.32,737.75 1142.94,737.91 1142.97,739.55"/>
    <poly id="346138009" type="building" color="255,230,230" fill="1" layer="-1.00" shape="1147.92,765.89 1157.36,765.73 1157.31,762.05 1144.38,762.27 1144.42,764.79 1143.62,764.80 1143.61,769.47 1147.91,769.47 1147.92,765.89"/>
    <poly id="346138011" type="building" color="255,230,230" fill="1" layer="-1.00" shape="1470.70,944.73 1482.36,941.90 1481.21,937.26 1479.48,937.67 1479.54,937.95 1475.17,939.02 1474.82,937.63 1469.28,938.98 1470.70,944.73"/>
    <poly id="346138012" type="building" color="255,230,230" fill="1" layer="-1.00" shape="1393.17,1020.23 1392.76,1024.45 1394.55,1024.62 1394.16,1028.60 1401.14,1029.26 1401.51,1025.37 1402.22,1025.44 1402.63,1021.14 1393.17,1020.23"/>
    <poly id="346138014" type="building" color="255,230,230" fill="1" layer="-1.00" shape="1420.99,834.62 1416.09,834.42 1415.93,843.07 1420.82,843.17 1420.92,838.64 1424.36,838.65 1424.37,834.63 1420.99,834.62"/>
    <poly id="346243799" type="building" color="255,230,230" fill="1" layer="-1.00" shape="665.91,634.36 666.95,634.36 666.89,636.39 665.56,636.42 665.66,643.12 673.70,643.00 673.61,637.46 677.88,637.65 678.22,629.83 672.19,629.56 672.10,631.33 665.88,631.39 665.91,634.36"/>
    <poly id="346243800" type="building" color="255,230,230" fill="1" layer="-1.00" shape="671.98,634.30 671.89,636.32 669.81,636.36 669.86,634.32 671.98,634.30"/>
    <poly id="346243805" type="building" color="255,230,230" fill="1" layer="-1.00" shape="1025.84,549.83 1034.29,549.30 1033.91,543.33 1025.46,543.86 1025.84,549.83"/>
    <poly id="346243811" type="building" color="255,230,230" fill="1" layer="-1.00" shape="654.70,612.58 658.83,612.55 658.75,601.23 654.61,601.27 654.70,612.58"/>
    <poly id="346243812" type="building" color="255,230,230" fill="1" layer="-1.00" shape="748.37,592.08 756.56,592.02 756.50,584.74 748.32,584.79 748.37,592.08"/>
    <poly id="346243818" type="building" color="255,230,230" fill="1" layer="-1.00" shape="1063.37,648.90 1075.80,648.09 1074.82,632.99 1062.39,633.79 1063.37,648.90"/>
    <poly id="346243820" type="building" color="255,230,230" fill="1" layer="-1.00" shape="665.39,652.46 673.00,652.28 672.93,649.42 665.32,649.61 665.39,652.46"/>
    <poly id="346243821" type="building" color="255,230,230" fill="1" layer="-1.00" shape="674.87,558.38 685.79,558.57 685.85,554.84 674.93,554.64 674.87,558.38"/>
    <poly id="346243824" type="building" color="255,230,230" fill="1" layer="-1.00" shape="1081.54,603.78 1090.01,603.24 1089.41,593.97 1080.95,594.50 1081.54,603.78"/>
    <poly id="346243826" type="building" color="255,230,230" fill="1" layer="-1.00" shape="988.07,558.04 998.31,557.22 996.98,540.98 986.75,541.82 988.07,558.04"/>
    <poly id="346243834" type="building" color="255,230,230" fill="1" layer="-1.00" shape="1048.13,543.53 1054.08,543.29 1053.68,533.51 1047.72,533.75 1048.13,543.53"/>
    <poly id="346243842" type="building" color="255,230,230" fill="1" layer="-1.00" shape="673.19,546.50 680.35,545.99 679.70,536.87 672.53,537.38 673.19,546.50"/>
    <poly id="346243844" type="building" color="255,230,230" fill="1" layer="-1.00" shape="1064.27,569.63 1069.36,569.54 1069.25,563.57 1064.16,563.66 1064.27,569.63"/>
    <poly id="346243846" type="building" color="255,230,230" fill="1" layer="-1.00" shape="1031.06,652.54 1038.57,652.31 1038.44,648.17 1030.93,648.40 1031.06,652.54"/>
    <poly id="346243849" type="building" color="255,230,230" fill="1" layer="-1.00" shape="1030.57,597.64 1039.08,597.32 1038.62,585.56 1030.12,585.88 1030.57,597.64"/>
    <poly id="346243850" type="building" color="255,230,230" fill="1" layer="-1.00" shape="681.73,593.65 688.22,593.80 688.58,577.54 682.09,577.40 681.73,593.65"/>
    <poly id="346243851" type="building" color="255,230,230" fill="1" layer="-1.00" shape="655.90,641.34 664.83,641.01 664.36,628.33 655.44,628.65 655.90,641.34"/>
    <poly id="346243855" type="building" color="255,230,230" fill="1" layer="-1.00" shape="963.68,579.90 972.03,579.06 971.24,571.31 962.88,572.15 963.68,579.90"/>
    <poly id="346243857" type="building" color="255,230,230" fill="1" layer="-1.00" shape="1062.15,607.72 1069.66,607.23 1069.37,602.86 1061.86,603.35 1062.15,607.72"/>
    <poly id="346243870" type="building" color="255,230,230" fill="1" layer="-1.00" shape="887.62,605.28 898.28,603.95 897.52,597.96 886.86,599.30 887.62,605.28"/>
    <poly id="346243873" type="building" color="255,230,230" fill="1" layer="-1.00" shape="681.32,545.56 683.60,545.51 683.41,536.58 681.12,536.63 681.32,545.56"/>
    <poly id="346243874" type="building" color="255,230,230" fill="1" layer="-1.00" shape="885.57,592.00 895.63,590.35 893.84,579.64 883.79,581.30 885.57,592.00"/>
    <poly id="346243876" type="building" color="255,230,230" fill="1" layer="-1.00" shape="757.37,592.10 760.57,592.26 760.94,585.08 757.74,584.92 757.37,592.10"/>
    <poly id="346243878" type="building" color="255,230,230" fill="1" layer="-1.00" shape="1025.46,596.55 1029.23,596.33 1028.70,587.45 1024.94,587.68 1025.46,596.55"/>
    <poly id="346243880" type="building" color="255,230,230" fill="1" layer="-1.00" shape="651.42,568.06 661.57,566.20 660.40,559.95 650.26,561.81 651.42,568.06"/>
    <poly id="346243881" type="building" color="255,230,230" fill="1" layer="-1.00" shape="1034.88,610.38 1044.59,610.33 1044.51,598.15 1034.80,598.20 1034.88,610.38"/>
    <poly id="346243884" type="building" color="255,230,230" fill="1" layer="-1.00" shape="1013.07,543.16 1020.39,542.10 1019.68,537.25 1012.36,538.31 1013.07,543.16"/>
    <poly id="346243887" type="building" color="255,230,230" fill="1" layer="-1.00" shape="686.35,609.18 696.23,610.30 697.12,602.66 687.25,601.53 686.35,609.18"/>
    <poly id="346243888" type="building" color="255,230,230" fill="1" layer="-1.00" shape="709.92,633.53 724.01,633.83 724.18,626.32 710.09,626.01 709.92,633.53"/>
    <poly id="346243890" type="building" color="255,230,230" fill="1" layer="-1.00" shape="999.83,555.57 1006.69,554.45 1003.27,540.44 998.10,540.91 999.83,555.57"/>
    <poly id="346243899" type="building" color="255,230,230" fill="1" layer="-1.00" shape="1055.24,542.16 1063.48,542.15 1063.47,532.17 1055.22,532.18 1055.24,542.16"/>
    <poly id="346243901" type="building" color="255,230,230" fill="1" layer="-1.00" shape="673.12,612.56 683.53,612.81 683.79,602.35 673.38,602.10 673.12,612.56"/>
    <poly id="346243908" type="building" color="255,230,230" fill="1" layer="-1.00" shape="684.55,651.73 685.64,641.22 679.08,640.53 677.98,651.05 684.55,651.73"/>
    <poly id="346243912" type="building" color="255,230,230" fill="1" layer="-1.00" shape="689.29,559.57 695.78,559.48 695.29,519.90 688.80,519.97 689.29,559.57"/>
    <poly id="346243917" type="building" color="255,230,230" fill="1" layer="-1.00" shape="1030.29,646.31 1036.34,646.30 1036.32,638.26 1030.27,638.28 1030.29,646.31"/>
    <poly id="346243920" type="building" color="255,230,230" fill="1" layer="-1.00" shape="1062.83,630.85 1086.13,628.72 1084.78,614.20 1061.49,616.34 1062.83,630.85"/>
    <poly id="346243924" type="building" color="255,230,230" fill="1" layer="-1.00" shape="1064.64,541.33 1071.11,541.50 1071.42,530.13 1064.95,529.96 1064.64,541.33"/>
    <poly id="346243928" type="building" color="255,230,230" fill="1" layer="-1.00" shape="645.94,626.14 664.84,625.61 664.54,615.09 645.64,615.62 645.94,626.14"/>
    <poly id="346243934" type="building" color="255,230,230" fill="1" layer="-1.00" shape="917.24,599.02 923.09,598.46 921.97,586.93 916.12,587.49 917.24,599.02"/>
    <poly id="346243936" type="building" color="255,230,230" fill="1" layer="-1.00" shape="1085.80,559.76 1090.29,559.60 1089.91,549.17 1085.42,549.32 1085.80,559.76"/>
    <poly id="346243941" type="building" color="255,230,230" fill="1" layer="-1.00" shape="1019.32,569.54 1027.16,568.89 1026.21,557.70 1018.38,558.35 1019.32,569.54"/>
    <poly id="346243951" type="building" color="255,230,230" fill="1" layer="-1.00" shape="673.43,570.94 679.59,570.64 679.28,564.35 673.12,564.65 673.43,570.94"/>
    <poly id="346243953" type="building" color="255,230,230" fill="1" layer="-1.00" shape="696.68,632.97 709.30,633.26 709.46,626.44 696.83,626.15 696.68,632.97"/>
    <poly id="346243960" type="building" color="255,230,230" fill="1" layer="-1.00" shape="665.42,658.42 672.73,658.40 672.71,654.60 665.41,654.62 665.42,658.42"/>
    <poly id="346243961" type="building" color="255,230,230" fill="1" layer="-1.00" shape="675.68,625.76 679.59,626.02 679.75,623.55 675.85,623.29 675.68,625.76"/>
    <poly id="346243965" type="building" color="255,230,230" fill="1" layer="-1.00" shape="666.09,556.63 674.35,555.21 673.11,548.07 664.85,549.49 666.09,556.63"/>
    <poly id="346243972" type="building" color="255,230,230" fill="1" layer="-1.00" shape="1019.78,583.19 1030.11,581.82 1028.58,570.20 1018.23,571.57 1019.78,583.19"/>