<additional>
    <inductionLoop id='-143548724#0_0loop' lane='-143548724#0_0' pos='20.98' freq='100' file='resultsOfDetectors.xml'/>
    <inductionLoop id='-143548724#1_0loop' lane='-143548724#1_0' pos='48.8' freq='100' file='resultsOfDetectors.xml'/>
    <inductionLoop id='-43317278#0_0loop' lane='-43317278#0_0' pos='160.315' freq='100' file='resultsOfDetectors.xml'/>
    <inductionLoop id='-43317278#1_0loop' lane='-43317278#1_0' pos='85.22' freq='100' file='resultsOfDetectors.xml'/>
    <inductionLoop id='-43317278#2_0loop' lane='-43317278#2_0' pos='47.43' freq='100' file='resultsOfDetectors.xml'/>
    <inductionLoop id='-44710595#0_0loop' lane='-44710595#0_0' pos='17.515' freq='100' file='resultsOfDetectors.xml'/>
    <inductionLoop id='-44710595#1_0loop' lane='-44710595#1_0' pos='15.59' freq='100' file='resultsOfDetectors.xml'/>
    <inductionLoop id='-44710595#2_0loop' lane='-44710595#2_0' pos='35.99' freq='100' file='resultsOfDetectors.xml'/>
    <inductionLoop id='-44710596_0loop' lane='-44710596_0' pos='84.845' freq='100' file='resultsOfDetectors.xml'/>
    <inductionLoop id='-44710599#0_0loop' lane='-44710599#0_0' pos='75.265' freq='100' file='resultsOfDetectors.xml'/>
    <inductionLoop id='-44710599#1_0loop' lane='-44710599#1_0' pos='92.56' freq='100' file='resultsOfDetectors.xml'/>
    <inductionLoop id='-44710599#2_0loop' lane='-44710599#2_0' pos='14.715' freq='100' file='resultsOfDetectors.xml'/>
    <inductionLoop id='-44710599#3_0loop' lane='-44710599#3_0' pos='21.765' freq='100' file='resultsOfDetectors.xml'/>
    <inductionLoop id='-44710599#4_0loop' lane='-44710599#4_0' pos='431.285' freq='100' file='resultsOfDetectors.xml'/>
    <inductionLoop id='-44710602#0_0loop' lane='-44710602#0_0' pos='15.25' freq='100' file='resultsOfDetectors.xml'/>
    <inductionLoop id='-44710602#1_0loop' lane='-44710602#1_0' pos='150.765' freq='100' file='resultsOfDetectors.xml'/>
    <inductionLoop id='-44710603#0_0loop' lane='-44710603#0_0' pos='49.24' freq='100' file='resultsOfDetectors.xml'/>
    <inductionLoop id='-44710603#1_0loop' lane='-44710603#1_0' pos='84.495' freq='100' file='resultsOfDetectors.xml'/>
    <inductionLoop id='143548724#0_0loop' lane='143548724#0_0' pos='20.98' freq='100' file='resultsOfDetectors.xml'/>
    <inductionLoop id='143548724#1_0loop' lane='143548724#1_0' pos='48.8' freq='100' file='resultsOfDetectors.xml'/>
    <inductionLoop id='43317278#0_0loop' lane='43317278#0_0' pos='160.315' freq='100' file='resultsOfDetectors.xml'/>
    <inductionLoop id='43317278#1_0loop' lane='43317278#1_0' pos='85.29' freq='100' file='resultsOfDetectors.xml'/>
    <inductionLoop id='43317278#2_0loop' lane='43317278#2_0' pos='47.43' freq='100' file='resultsOfDetectors.xml'/>
    <inductionLoop id='44710595#0_0loop' lane='44710595#0_0' pos='17.515' freq='100' file='resultsOfDetectors.xml'/>
    <inductionLoop id='44710595#1_0loop' lane='44710595#1_0' pos='15.59' freq='100' file='resultsOfDetectors.xml'/>
    <inductionLoop id='44710595#2_0loop' lane='44710595#2_0' pos='36.075' freq='100' file='resultsOfDetectors.xml'/>
    <inductionLoop id='44710596_0loop' lane='44710596_0' pos='84.845' freq='100' file='resultsOfDetectors.xml'/>
    <inductionLoop id='44710599#0_0loop' lane='44710599#0_0' pos='75.305' freq='100' file='resultsOfDetectors.xml'/>
    <inductionLoop id='44710599#1_0loop' lane='44710599#1_0' pos='92.56' freq='100' file='resultsOfDetectors.xml'/>
    <inductionLoop id='44710599#2_0loop' lane='44710599#2_0' pos='14.715' freq='100' file='resultsOfDetectors.xml'/>
    <inductionLoop id='44710599#3_0loop' lane='44710599#3_0' pos='21.765' freq='100' file='resultsOfDetectors.xml'/>
    <inductionLoop id='44710599#4_0loop' lane='44710599#4_0' pos='431.185' freq='100' file='resultsOfDetectors.xml'/>
    <inductionLoop id='44710602#0_0loop' lane='44710602#0_0' pos='15.25' freq='100' file='resultsOfDetectors.xml'/>
    <inductionLoop id='44710602#1_0loop' lane='44710602#1_0' pos='147.31' freq='100' file='resultsOfDetectors.xml'/>
    <inductionLoop id='44710603#0_0loop' lane='44710603#0_0' pos='49.24' freq='100' file='resultsOfDetectors.xml'/>
    <inductionLoop id='44710603#1_0loop' lane='44710603#1_0' pos='84.495' freq='100' file='resultsOfDetectors.xml'/>
    <inductionLoop id=':1570881873_0_0loop' lane=':1570881873_0_0' pos='4.535' freq='100' file='resultsOfDetectors.xml'/>
    <inductionLoop id=':1570881873_4_0loop' lane=':1570881873_4_0' pos='5.055' freq='100' file='resultsOfDetectors.xml'/>
    <inductionLoop id=':1570881873_6_0loop' lane=':1570881873_6_0' pos='2.53' freq='100' file='resultsOfDetectors.xml'/>
    <inductionLoop id=':1570881873_7_0loop' lane=':1570881873_7_0' pos='4.68' freq='100' file='resultsOfDetectors.xml'/>
    <inductionLoop id=':1570881873_9_0loop' lane=':1570881873_9_0' pos='2.64' freq='100' file='resultsOfDetectors.xml'/>
    <inductionLoop id=':544376753_0_0loop' lane=':544376753_0_0' pos='4.75' freq='100' file='resultsOfDetectors.xml'/>
    <inductionLoop id=':544376753_1_0loop' lane=':544376753_1_0' pos='2.62' freq='100' file='resultsOfDetectors.xml'/>
    <inductionLoop id=':544376753_3_0loop' lane=':544376753_3_0' pos='2.53' freq='100' file='resultsOfDetectors.xml'/>
    <inductionLoop id=':544376753_4_0loop' lane=':544376753_4_0' pos='5.2' freq='100' file='resultsOfDetectors.xml'/>
    <inductionLoop id=':544376753_6_0loop' lane=':544376753_6_0' pos='2.51' freq='100' file='resultsOfDetectors.xml'/>
    <inductionLoop id=':544376753_7_0loop' lane=':544376753_7_0' pos='4.75' freq='100' file='resultsOfDetectors.xml'/>
    <inductionLoop id=':544376753_9_0loop' lane=':544376753_9_0' pos='2.54' freq='100' file='resultsOfDetectors.xml'/>
    <inductionLoop id=':544376755_0_0loop' lane=':544376755_0_0' pos='2.57' freq='100' file='resultsOfDetectors.xml'/>
    <inductionLoop id=':544376755_10_0loop' lane=':544376755_10_0' pos='2.6' freq='100' file='resultsOfDetectors.xml'/>
    <inductionLoop id=':544376755_12_0loop' lane=':544376755_12_0' pos='2.54' freq='100' file='resultsOfDetectors.xml'/>
    <inductionLoop id=':544376755_13_0loop' lane=':544376755_13_0' pos='4.76' freq='100' file='resultsOfDetectors.xml'/>
    <inductionLoop id=':544376755_14_0loop' lane=':544376755_14_0' pos='2.57' freq='100' file='resultsOfDetectors.xml'/>
    <inductionLoop id=':544376755_16_0loop' lane=':544376755_16_0' pos='2.505' freq='100' file='resultsOfDetectors.xml'/>
    <inductionLoop id=':544376755_18_0loop' lane=':544376755_18_0' pos='2.605' freq='100' file='resultsOfDetectors.xml'/>
    <inductionLoop id=':544376755_1_0loop' lane=':544376755_1_0' pos='4.86' freq='100' file='resultsOfDetectors.xml'/>
    <inductionLoop id=':544376755_20_0loop' lane=':544376755_20_0' pos='2.565' freq='100' file='resultsOfDetectors.xml'/>
    <inductionLoop id=':544376755_22_0loop' lane=':544376755_22_0' pos='2.605' freq='100' file='resultsOfDetectors.xml'/>
    <inductionLoop id=':544376755_2_0loop' lane=':544376755_2_0' pos='2.715' freq='100' file='resultsOfDetectors.xml'/>
    <inductionLoop id=':544376755_4_0loop' lane=':544376755_4_0' pos='2.515' freq='100' file='resultsOfDetectors.xml'/>
    <inductionLoop id=':544376755_5_0loop' lane=':544376755_5_0' pos='4.77' freq='100' file='resultsOfDetectors.xml'/>
    <inductionLoop id=':544376755_6_0loop' lane=':544376755_6_0' pos='2.61' freq='100' file='resultsOfDetectors.xml'/>
    <inductionLoop id=':544376755_8_0loop' lane=':544376755_8_0' pos='2.52' freq='100' file='resultsOfDetectors.xml'/>
    <inductionLoop id=':544376755_9_0loop' lane=':544376755_9_0' pos='4.785' freq='100' file='resultsOfDetectors.xml'/>
    <inductionLoop id=':544376756_0_0loop' lane=':544376756_0_0' pos='4.95' freq='100' file='resultsOfDetectors.xml'/>
    <inductionLoop id=':544376756_1_0loop' lane=':544376756_1_0' pos='2.8' freq='100' file='resultsOfDetectors.xml'/>
    <inductionLoop id=':544376756_3_0loop' lane=':544376756_3_0' pos='2.55' freq='100' file='resultsOfDetectors.xml'/>
    <inductionLoop id=':544376756_4_0loop' lane=':544376756_4_0' pos='5.275' freq='100' file='resultsOfDetectors.xml'/>
    <inductionLoop id=':544376756_6_0loop' lane=':544376756_6_0' pos='2.62' freq='100' file='resultsOfDetectors.xml'/>
    <inductionLoop id=':544376756_7_0loop' lane=':544376756_7_0' pos='4.815' freq='100' file='resultsOfDetectors.xml'/>
    <inductionLoop id=':544376756_9_0loop' lane=':544376756_9_0' pos='2.58' freq='100' file='resultsOfDetectors.xml'/>
    <inductionLoop id=':567309180_0_0loop' lane=':567309180_0_0' pos='4.8' freq='100' file='resultsOfDetectors.xml'/>
    <inductionLoop id=':567309180_1_0loop' lane=':567309180_1_0' pos='2.685' freq='100' file='resultsOfDetectors.xml'/>
    <inductionLoop id=':567309180_3_0loop' lane=':567309180_3_0' pos='2.52' freq='100' file='resultsOfDetectors.xml'/>
    <inductionLoop id=':567309180_4_0loop' lane=':567309180_4_0' pos='5.19' freq='100' file='resultsOfDetectors.xml'/>
    <inductionLoop id=':567309180_6_0loop' lane=':567309180_6_0' pos='2.555' freq='100' file='resultsOfDetectors.xml'/>
    <inductionLoop id=':567309180_7_0loop' lane=':567309180_7_0' pos='4.765' freq='100' file='resultsOfDetectors.xml'/>
    <inductionLoop id=':567309180_9_0loop' lane=':567309180_9_0' pos='2.56' freq='100' file='resultsOfDetectors.xml'/>
    <inductionLoop id=':567309182_0_0loop' lane=':567309182_0_0' pos='2.525' freq='100' file='resultsOfDetectors.xml'/>
    <inductionLoop id=':567309182_10_0loop' lane=':567309182_10_0' pos='2.575' freq='100' file='resultsOfDetectors.xml'/>
    <inductionLoop id=':567309182_1_0loop' lane=':567309182_1_0' pos='4.715' freq='100' file='resultsOfDetectors.xml'/>
    <inductionLoop id=':567309182_3_0loop' lane=':567309182_3_0' pos='4.645' freq='100' file='resultsOfDetectors.xml'/>
    <inductionLoop id=':567309182_4_0loop' lane=':567309182_4_0' pos='2.575' freq='100' file='resultsOfDetectors.xml'/>
    <inductionLoop id=':567309182_7_0loop' lane=':567309182_7_0' pos='5.11' freq='100' file='resultsOfDetectors.xml'/>
    <inductionLoop id=':567309184_0_0loop' lane=':567309184_0_0' pos='2.525' freq='100' file='resultsOfDetectors.xml'/>
    <inductionLoop id=':567309184_10_0loop' lane=':567309184_10_0' pos='2.525' freq='100' file='resultsOfDetectors.xml'/>
    <inductionLoop id=':567309184_1_0loop' lane=':567309184_1_0' pos='4.77' freq='100' file='resultsOfDetectors.xml'/>
    <inductionLoop id=':567309184_3_0loop' lane=':567309184_3_0' pos='4.815' freq='100' file='resultsOfDetectors.xml'/>
    <inductionLoop id=':567309184_4_0loop' lane=':567309184_4_0' pos='2.69' freq='100' file='resultsOfDetectors.xml'/>
    <inductionLoop id=':567309184_6_0loop' lane=':567309184_6_0' pos='2.515' freq='100' file='resultsOfDetectors.xml'/>
    <inductionLoop id=':567309184_7_0loop' lane=':567309184_7_0' pos='5.195' freq='100' file='resultsOfDetectors.xml'/>
    <inductionLoop id=':567309218_0_0loop' lane=':567309218_0_0' pos='4.6' freq='100' file='resultsOfDetectors.xml'/>
    <inductionLoop id=':567309218_1_0loop' lane=':567309218_1_0' pos='2.515' freq='100' file='resultsOfDetectors.xml'/>
    <inductionLoop id=':567309218_3_0loop' lane=':567309218_3_0' pos='2.54' freq='100' file='resultsOfDetectors.xml'/>
    <inductionLoop id=':567309218_4_0loop' lane=':567309218_4_0' pos='5.16' freq='100' file='resultsOfDetectors.xml'/>
    <inductionLoop id=':567309218_7_0loop' lane=':567309218_7_0' pos='4.7' freq='100' file='resultsOfDetectors.xml'/>
    <inductionLoop id=':567309218_9_0loop' lane=':567309218_9_0' pos='2.57' freq='100' file='resultsOfDetectors.xml'/>
    <inductionLoop id=':567309220_0_0loop' lane=':567309220_0_0' pos='4.75' freq='100' file='resultsOfDetectors.xml'/>
    <inductionLoop id=':567309220_1_0loop' lane=':567309220_1_0' pos='2.63' freq='100' file='resultsOfDetectors.xml'/>
    <inductionLoop id=':567309220_3_0loop' lane=':567309220_3_0' pos='2.515' freq='100' file='resultsOfDetectors.xml'/>
    <inductionLoop id=':567309220_4_0loop' lane=':567309220_4_0' pos='5.18' freq='100' file='resultsOfDetectors.xml'/>
    <inductionLoop id=':567309220_6_0loop' lane=':567309220_6_0' pos='2.505' freq='100' file='resultsOfDetectors.xml'/>
    <inductionLoop id=':567309220_7_0loop' lane=':567309220_7_0' pos='4.75' freq='100' file='resultsOfDetectors.xml'/>
    <inductionLoop id=':567309220_9_0loop' lane=':567309220_9_0' pos='2.535' freq='100' file='resultsOfDetectors.xml'/>
    <inductionLoop id=':567309243_0_0loop' lane=':567309243_0_0' pos='2.585' freq='100' file='resultsOfDetectors.xml'/>
    <inductionLoop id=':567309243_10_0loop' lane=':567309243_10_0' pos='2.615' freq='100' file='resultsOfDetectors.xml'/>
    <inductionLoop id=':567309243_12_0loop' lane=':567309243_12_0' pos='2.515' freq='100' file='resultsOfDetectors.xml'/>
    <inductionLoop id=':567309243_13_0loop' lane=':567309243_13_0' pos='4.775' freq='100' file='resultsOfDetectors.xml'/>
    <inductionLoop id=':567309243_14_0loop' lane=':567309243_14_0' pos='2.615' freq='100' file='resultsOfDetectors.xml'/>
    <inductionLoop id=':567309243_16_0loop' lane=':567309243_16_0' pos='2.53' freq='100' file='resultsOfDetectors.xml'/>
    <inductionLoop id=':567309243_18_0loop' lane=':567309243_18_0' pos='2.535' freq='100' file='resultsOfDetectors.xml'/>
    <inductionLoop id=':567309243_1_0loop' lane=':567309243_1_0' pos='4.79' freq='100' file='resultsOfDetectors.xml'/>
    <inductionLoop id=':567309243_20_0loop' lane=':567309243_20_0' pos='2.615' freq='100' file='resultsOfDetectors.xml'/>
    <inductionLoop id=':567309243_22_0loop' lane=':567309243_22_0' pos='2.585' freq='100' file='resultsOfDetectors.xml'/>
    <inductionLoop id=':567309243_2_0loop' lane=':567309243_2_0' pos='2.63' freq='100' file='resultsOfDetectors.xml'/>
    <inductionLoop id=':567309243_5_0loop' lane=':567309243_5_0' pos='4.815' freq='100' file='resultsOfDetectors.xml'/>
    <inductionLoop id=':567309243_6_0loop' lane=':567309243_6_0' pos='2.665' freq='100' file='resultsOfDetectors.xml'/>
    <inductionLoop id=':567309243_8_0loop' lane=':567309243_8_0' pos='2.545' freq='100' file='resultsOfDetectors.xml'/>
    <inductionLoop id=':567309243_9_0loop' lane=':567309243_9_0' pos='4.8' freq='100' file='resultsOfDetectors.xml'/>
</additional>