<?xml version="1.0"?>
<!-- generated on 2017-06-27 23:10:26.183827 by $Id: randomTrips.py 21557 2016-09-28 10:43:52Z luecken $
  options: -n bangalore.net.xml -r bangalore.rou.xml -e 100 -l
-->
<trips>
    <trip id="0" depart="0.00" from="-168712713#1" to="-135400853#0" />
    <trip id="1" depart="1.00" from="-31281116#0" to="-197731605#1" />
    <trip id="2" depart="2.00" from="38312870#6" to="175068172#4" />
    <trip id="3" depart="3.00" from="-168712757#0" to="197731601" />
    <trip id="4" depart="4.00" from="-38312851#6" to="168712722" />
    <trip id="5" depart="5.00" from="-38421542#0" to="-175068149#1" />
    <trip id="6" depart="6.00" from="170338936" to="37786326#8" />
    <trip id="7" depart="7.00" from="-197731575" to="168712753#6" />
    <trip id="8" depart="8.00" from="-46953071" to="46953019" />
    <trip id="9" depart="9.00" from="361829849#4" to="-46953075" />
    <trip id="10" depart="10.00" from="-175284909#1" to="175284924#0" />
    <trip id="11" depart="11.00" from="46953064" to="-197731605#0" />
    <trip id="12" depart="12.00" from="143793373#3" to="30810593#38" />
    <trip id="13" depart="13.00" from="-38420112#0" to="175284899#0" />
    <trip id="14" depart="14.00" from="-175068149#2" to="167807928" />
    <trip id="15" depart="15.00" from="141482733" to="31565297" />
    <trip id="16" depart="16.00" from="-31565210#2" to="168712731" />
    <trip id="17" depart="17.00" from="-38416004#2" to="30810593#38" />
    <trip id="18" depart="18.00" from="-46952989#0" to="46953113" />
    <trip id="19" depart="19.00" from="168712710#1" to="175284896#0" />
    <trip id="20" depart="20.00" from="-141482733" to="46953061#2" />
    <trip id="21" depart="21.00" from="-134102184" to="168712752#8" />
    <trip id="22" depart="22.00" from="37785985#3" to="46952989#0" />
    <trip id="23" depart="23.00" from="-175068166#4" to="-46953008#1" />
    <trip id="24" depart="24.00" from="-38312869#8" to="46953009" />
    <trip id="25" depart="25.00" from="141482733" to="362292209#3" />
    <trip id="26" depart="26.00" from="-175068149#2" to="-134102182#1" />
    <trip id="27" depart="27.00" from="30810593#11" to="168712681#1" />
    <trip id="28" depart="28.00" from="-168712735#3" to="134102182#1" />
    <trip id="29" depart="29.00" from="170338936" to="-168716072" />
    <trip id="30" depart="30.00" from="46953072" to="-46953111" />
    <trip id="31" depart="31.00" from="46953000#0" to="167807928" />
    <trip id="32" depart="32.00" from="46952992#0" to="-46953064" />
    <trip id="33" depart="33.00" from="38416002#2" to="-37785986#0" />
    <trip id="34" depart="34.00" from="-168712700#0" to="-38312867#5" />
    <trip id="35" depart="35.00" from="-46952992#0" to="175284896#3" />
    <trip id="36" depart="36.00" from="143793373#6" to="175063889#3" />
    <trip id="37" depart="37.00" from="175284924#1" to="-168712735#0" />
    <trip id="38" depart="38.00" from="-168712741#1" to="-170338939" />
    <trip id="39" depart="39.00" from="168712679#0" to="-197731605#1" />
    <trip id="40" depart="40.00" from="167808117" to="168712752#8" />
    <trip id="41" depart="41.00" from="-30810593#38" to="-37785986#1" />
    <trip id="42" depart="42.00" from="169722390#0" to="-31565210#0" />
    <trip id="43" depart="43.00" from="-167807903#3" to="168712733#1" />
    <trip id="44" depart="44.00" from="-168712691#0" to="143793375#2" />
    <trip id="45" depart="45.00" from="361829849#0" to="46953097#1" />
    <trip id="46" depart="46.00" from="362292209#0" to="170338929#2" />
    <trip id="47" depart="47.00" from="175284889#2" to="-168712715#2" />
    <trip id="48" depart="48.00" from="-30810593#38" to="197731575" />
    <trip id="49" depart="49.00" from="30810593#35" to="175284924#1" />
    <trip id="50" depart="50.00" from="168712730#0" to="46953033" />
    <trip id="51" depart="51.00" from="46953014" to="-168712728#0" />
    <trip id="52" depart="52.00" from="38420112#0" to="-175063883#2" />
    <trip id="53" depart="53.00" from="30810593#2" to="170338934#1" />
    <trip id="54" depart="54.00" from="264140336#0" to="46953022" />
    <trip id="55" depart="55.00" from="175284915#1" to="-30810593#2" />
    <trip id="56" depart="56.00" from="-197731601" to="175063883#3" />
    <trip id="57" depart="57.00" from="168712735#2" to="170338940" />
    <trip id="58" depart="58.00" from="-46953061#0" to="-141482733" />
    <trip id="59" depart="59.00" from="167807903#1" to="-46953032" />
    <trip id="60" depart="60.00" from="-38416002#3" to="-30810593#13" />
    <trip id="61" depart="61.00" from="-46953021#3" to="168712752#3" />
    <trip id="62" depart="62.00" from="-168712735#0" to="-38420222" />
    <trip id="63" depart="63.00" from="168712735#4" to="-46953061#2" />
    <trip id="64" depart="64.00" from="168712729#1" to="46952992#0" />
    <trip id="65" depart="65.00" from="-38312870#0" to="46953072" />
    <trip id="66" depart="66.00" from="-46953018#0" to="143793373#6" />
    <trip id="67" depart="67.00" from="-46953096" to="-170338936" />
    <trip id="68" depart="68.00" from="-37785986#1" to="-168712729#1" />
    <trip id="69" depart="69.00" from="-175284896#2" to="175284896#1" />
    <trip id="70" depart="70.00" from="37785986#0" to="-38312869#6" />
    <trip id="71" depart="71.00" from="46952992#0" to="-46953030" />
    <trip id="72" depart="72.00" from="-38312869#0" to="-175068166#2" />
    <trip id="73" depart="73.00" from="46953020#1" to="175284911" />
    <trip id="74" depart="74.00" from="175284909#1" to="46953095#1" />
    <trip id="75" depart="75.00" from="30810593#0" to="-170338926#0" />
    <trip id="76" depart="76.00" from="-175063883#2" to="141482733" />
    <trip id="77" depart="77.00" from="38416004#1" to="-38420109#0" />
    <trip id="78" depart="78.00" from="-46953014" to="-38312869#0" />
    <trip id="79" depart="79.00" from="30810593#35" to="361829849#4" />
    <trip id="80" depart="80.00" from="37785986#0" to="-30810593#0" />
    <trip id="81" depart="81.00" from="135400845#0" to="-46953018#3" />
    <trip id="82" depart="82.00" from="-38415998" to="38312868#2" />
    <trip id="83" depart="83.00" from="168712733#2" to="-46953000#0" />
    <trip id="84" depart="84.00" from="-30810593#29" to="-38421542#0" />
    <trip id="85" depart="85.00" from="175068180#1" to="38416001#0" />
    <trip id="86" depart="86.00" from="-38312871#0" to="-46953018#4" />
    <trip id="87" depart="87.00" from="46953075" to="168712751#0" />
    <trip id="88" depart="88.00" from="168712689" to="38420111#1" />
    <trip id="89" depart="89.00" from="168712752#5" to="175284924#1" />
    <trip id="90" depart="90.00" from="-46953073" to="-38420112#0" />
    <trip id="91" depart="91.00" from="-37785985#1" to="-46953111" />
    <trip id="92" depart="92.00" from="46953071" to="-31565210#4" />
    <trip id="93" depart="93.00" from="168712728#0" to="361829848#1" />
    <trip id="94" depart="94.00" from="-175068166#3" to="46953006" />
    <trip id="95" depart="95.00" from="38415999#1" to="264140337#1" />
    <trip id="96" depart="96.00" from="-46953021#2" to="46953031" />
    <trip id="97" depart="97.00" from="46953020#0" to="-37786243#0" />
    <trip id="98" depart="98.00" from="30810593#31" to="-38312851#4" />
    <trip id="99" depart="99.00" from="-175068150" to="167807903#3" />
</trips>
