<?xml version="1.0" encoding="UTF-8"?>

<!-- generated on Sun Jul  2 14:57:27 2017 by SUMO netconvert Version 0.28.0
<?xml version="1.0" encoding="UTF-8"?>

<configuration xmlns:xsi="http://www.w3.org/2001/XMLSchema-instance" xsi:noNamespaceSchemaLocation="http://sumo.dlr.de/xsd/netconvertConfiguration.xsd">

    <input>
        <osm-files value="bangalore.osm"/>
    </input>

    <output>
        <output-file value="bangalore.net.xml"/>
    </output>

    <projection>
        <proj.utm value="true"/>
    </projection>

    <tls_building>
        <tls.guess value="true"/>
    </tls_building>

    <building_defaults>
        <default.lanenumber value="2"/>
    </building_defaults>

    <report>
        <no-warnings value="true"/>
    </report>

</configuration>
-->

<net version="0.27" xmlns:xsi="http://www.w3.org/2001/XMLSchema-instance" xsi:noNamespaceSchemaLocation="http://sumo.dlr.de/xsd/net_file.xsd">

    <location netOffset="-790641.28,-1441646.19" convBoundary="0.00,0.00,387.68,1075.46" origBoundary="77.679576,13.026894,77.683154,13.036613" projParameter="+proj=utm +zone=43 +ellps=WGS84 +datum=WGS84 +units=m +no_defs"/>

    <type id="highway.bridleway" priority="1" numLanes="1" speed="2.78" allow="pedestrian" oneway="1" width="2.00"/>
    <type id="highway.bus_guideway" priority="1" numLanes="1" speed="8.33" allow="bus" oneway="1"/>
    <type id="highway.cycleway" priority="1" numLanes="1" speed="5.56" allow="bicycle" oneway="0" width="1.00"/>
    <type id="highway.footway" priority="1" numLanes="1" speed="8.33" allow="pedestrian" oneway="1" width="2.00"/>
    <type id="highway.ford" priority="1" numLanes="1" speed="2.78" allow="army" oneway="0"/>
    <type id="highway.living_street" priority="3" numLanes="1" speed="2.78" disallow="tram rail_urban rail rail_electric ship" oneway="0"/>
    <type id="highway.motorway" priority="13" numLanes="2" speed="44.44" allow="private emergency authority army vip passenger hov taxi bus coach delivery truck trailer motorcycle evehicle custom1 custom2" oneway="1"/>
    <type id="highway.motorway_link" priority="12" numLanes="1" speed="22.22" allow="private emergency authority army vip passenger hov taxi bus coach delivery truck trailer motorcycle evehicle custom1 custom2" oneway="1"/>
    <type id="highway.path" priority="1" numLanes="1" speed="2.78" allow="bicycle pedestrian" oneway="1" width="2.00"/>
    <type id="highway.pedestrian" priority="1" numLanes="1" speed="8.33" allow="pedestrian" oneway="1" width="2.00"/>
    <type id="highway.primary" priority="9" numLanes="2" speed="27.78" disallow="tram rail_urban rail rail_electric ship" oneway="0"/>
    <type id="highway.primary_link" priority="8" numLanes="1" speed="22.22" disallow="tram rail_urban rail rail_electric ship" oneway="0"/>
    <type id="highway.raceway" priority="14" numLanes="2" speed="83.33" allow="vip" oneway="0"/>
    <type id="highway.residential" priority="4" numLanes="2" speed="13.89" disallow="tram rail_urban rail rail_electric ship" oneway="0"/>
    <type id="highway.secondary" priority="7" numLanes="2" speed="27.78" disallow="tram rail_urban rail rail_electric ship" oneway="0"/>
    <type id="highway.secondary_link" priority="6" numLanes="1" speed="22.22" disallow="tram rail_urban rail rail_electric ship" oneway="0"/>
    <type id="highway.service" priority="2" numLanes="1" speed="5.56" allow="delivery bicycle pedestrian" oneway="0"/>
    <type id="highway.services" priority="1" numLanes="1" speed="8.33" disallow="tram rail_urban rail rail_electric ship" oneway="0"/>
    <type id="highway.stairs" priority="1" numLanes="1" speed="1.39" allow="pedestrian" oneway="1" width="2.00"/>
    <type id="highway.step" priority="1" numLanes="1" speed="1.39" allow="pedestrian" oneway="1" width="2.00"/>
    <type id="highway.steps" priority="1" numLanes="1" speed="1.39" allow="pedestrian" oneway="1" width="2.00"/>
    <type id="highway.tertiary" priority="6" numLanes="1" speed="22.22" disallow="tram rail_urban rail rail_electric ship" oneway="0"/>
    <type id="highway.tertiary_link" priority="5" numLanes="1" speed="22.22" disallow="tram rail_urban rail rail_electric ship" oneway="0"/>
    <type id="highway.track" priority="1" numLanes="1" speed="5.56" disallow="tram rail_urban rail rail_electric ship" oneway="0"/>
    <type id="highway.trunk" priority="11" numLanes="2" speed="27.78" disallow="tram rail_urban rail rail_electric bicycle pedestrian ship" oneway="0"/>
    <type id="highway.trunk_link" priority="10" numLanes="1" speed="22.22" disallow="tram rail_urban rail rail_electric bicycle pedestrian ship" oneway="0"/>
    <type id="highway.unclassified" priority="5" numLanes="1" speed="13.89" disallow="tram rail_urban rail rail_electric ship" oneway="0"/>
    <type id="highway.unsurfaced" priority="1" numLanes="1" speed="8.33" disallow="tram rail_urban rail rail_electric ship" oneway="0"/>
    <type id="railway.light_rail" priority="15" numLanes="1" speed="27.78" allow="rail_urban" oneway="1"/>
    <type id="railway.preserved" priority="15" numLanes="1" speed="27.78" allow="rail" oneway="1"/>
    <type id="railway.rail" priority="15" numLanes="1" speed="83.33" allow="rail rail_electric" oneway="1"/>
    <type id="railway.subway" priority="15" numLanes="1" speed="27.78" allow="rail_urban" oneway="1"/>
    <type id="railway.tram" priority="15" numLanes="1" speed="13.89" allow="tram" oneway="1"/>

    <edge id=":1570880867_0" function="internal">
        <lane id=":1570880867_0_0" index="0" disallow="tram rail_urban rail rail_electric ship" speed="13.89" length="4.82" shape="345.34,-1.65 346.59,-0.85 347.02,-0.03 346.62,0.80 345.40,1.65"/>
    </edge>
    <edge id=":1570880869_0" function="internal">
        <lane id=":1570880869_0_0" index="0" disallow="tram rail_urban rail rail_electric ship" speed="13.89" length="4.82" shape="0.03,7.83 -1.22,7.03 -1.65,6.21 -1.25,5.38 -0.03,4.54"/>
    </edge>
    <edge id=":1570888195_0" function="internal">
        <lane id=":1570888195_0_0" index="0" disallow="tram rail_urban rail rail_electric ship" speed="13.89" length="4.82" shape="130.41,377.10 129.60,378.35 128.78,378.77 127.95,378.37 127.11,377.14"/>
    </edge>
    <edge id=":1570888196_0" function="internal">
        <lane id=":1570888196_0_0" index="0" disallow="tram rail_urban rail rail_electric ship" speed="13.89" length="5.00" shape="119.28,12.29 119.07,10.93 118.47,9.97 117.49,9.41 116.13,9.23"/>
    </edge>
    <edge id=":1570888196_1" function="internal">
        <lane id=":1570888196_1_0" index="0" disallow="tram rail_urban rail rail_electric ship" speed="13.89" length="15.64" shape="122.58,12.25 123.13,7.99 124.90,4.92 127.89,3.04 132.10,2.35"/>
    </edge>
    <edge id=":1570888196_2" function="internal">
        <lane id=":1570888196_2_0" index="0" disallow="tram rail_urban rail rail_electric ship" speed="13.89" length="2.41" shape="122.58,12.25 123.39,11.00 124.21,10.58"/>
    </edge>
    <edge id=":1570888196_11" function="internal">
        <lane id=":1570888196_11_0" index="0" speed="13.89" length="2.41" shape="124.21,10.58 125.04,10.98 125.88,12.21"/>
    </edge>
    <edge id=":1570888196_3" function="internal">
        <lane id=":1570888196_3_0" index="0" disallow="tram rail_urban rail rail_electric ship" speed="13.89" length="5.05" shape="132.23,8.95 130.88,9.17 129.92,9.78 129.35,10.78 129.18,12.17"/>
    </edge>
    <edge id=":1570888196_4" function="internal">
        <lane id=":1570888196_4_0" index="0" disallow="tram rail_urban rail rail_electric ship" speed="13.89" length="16.09" shape="132.23,8.95 116.13,9.23"/>
        <lane id=":1570888196_4_1" index="1" disallow="tram rail_urban rail rail_electric ship" speed="13.89" length="16.09" shape="132.16,5.65 116.08,5.93"/>
    </edge>
    <edge id=":1570888196_6" function="internal">
        <lane id=":1570888196_6_0" index="0" disallow="tram rail_urban rail rail_electric ship" speed="13.89" length="2.41" shape="132.16,5.65 130.91,4.85 130.48,4.03"/>
    </edge>
    <edge id=":1570888196_12" function="internal">
        <lane id=":1570888196_12_0" index="0" speed="13.89" length="2.41" shape="130.48,4.03 130.88,3.20 132.10,2.35"/>
    </edge>
    <edge id=":1570888196_7" function="internal">
        <lane id=":1570888196_7_0" index="0" disallow="tram rail_urban rail rail_electric ship" speed="13.89" length="16.07" shape="115.97,-0.67 132.03,-0.95"/>
        <lane id=":1570888196_7_1" index="1" disallow="tram rail_urban rail rail_electric ship" speed="13.89" length="16.07" shape="116.02,2.63 132.10,2.35"/>
    </edge>
    <edge id=":1570888196_9" function="internal">
        <lane id=":1570888196_9_0" index="0" disallow="tram rail_urban rail rail_electric ship" speed="13.89" length="6.40" shape="116.02,2.63 120.29,3.17 122.11,4.23"/>
    </edge>
    <edge id=":1570888196_10" function="internal">
        <lane id=":1570888196_10_0" index="0" disallow="tram rail_urban rail rail_electric ship" speed="13.89" length="2.41" shape="116.02,2.63 117.27,3.44 117.70,4.26"/>
    </edge>
    <edge id=":1570888196_13" function="internal">
        <lane id=":1570888196_13_0" index="0" speed="13.89" length="9.28" shape="122.11,4.23 123.35,4.95 125.21,7.96 125.88,12.21"/>
    </edge>
    <edge id=":1570888196_14" function="internal">
        <lane id=":1570888196_14_0" index="0" speed="13.89" length="2.41" shape="117.70,4.26 117.30,5.09 116.08,5.93"/>
    </edge>
    <edge id=":1570901527_0" function="internal">
        <lane id=":1570901527_0_0" index="0" disallow="tram rail_urban rail rail_electric ship" speed="13.89" length="5.02" shape="261.72,9.58 261.50,8.22 260.90,7.25 259.92,6.69 258.56,6.52"/>
    </edge>
    <edge id=":1570901527_1" function="internal">
        <lane id=":1570901527_1_0" index="0" disallow="tram rail_urban rail rail_electric ship" speed="13.89" length="15.66" shape="265.02,9.51 265.54,5.25 267.30,2.18 270.30,0.30 274.54,-0.38"/>
    </edge>
    <edge id=":1570901527_2" function="internal">
        <lane id=":1570901527_2_0" index="0" disallow="tram rail_urban rail rail_electric ship" speed="13.89" length="2.41" shape="265.02,9.51 265.82,8.26 266.64,7.83"/>
    </edge>
    <edge id=":1570901527_11" function="internal">
        <lane id=":1570901527_11_0" index="0" speed="13.89" length="2.41" shape="266.64,7.83 267.47,8.22 268.32,9.44"/>
    </edge>
    <edge id=":1570901527_3" function="internal">
        <lane id=":1570901527_3_0" index="0" disallow="tram rail_urban rail rail_electric ship" speed="13.89" length="5.00" shape="274.66,6.22 273.30,6.44 272.35,7.04 271.78,8.02 271.62,9.38"/>
    </edge>
    <edge id=":1570901527_4" function="internal">
        <lane id=":1570901527_4_0" index="0" disallow="tram rail_urban rail rail_electric ship" speed="13.89" length="16.10" shape="274.66,6.22 258.56,6.52"/>
        <lane id=":1570901527_4_1" index="1" disallow="tram rail_urban rail rail_electric ship" speed="13.89" length="16.10" shape="274.60,2.92 258.50,3.22"/>
    </edge>
    <edge id=":1570901527_6" function="internal">
        <lane id=":1570901527_6_0" index="0" disallow="tram rail_urban rail rail_electric ship" speed="13.89" length="2.41" shape="274.60,2.92 273.35,2.12 272.92,1.30"/>
    </edge>
    <edge id=":1570901527_12" function="internal">
        <lane id=":1570901527_12_0" index="0" speed="13.89" length="2.41" shape="272.92,1.30 273.32,0.47 274.54,-0.38"/>
    </edge>
    <edge id=":1570901527_7" function="internal">
        <lane id=":1570901527_7_0" index="0" disallow="tram rail_urban rail rail_electric ship" speed="13.89" length="16.11" shape="258.37,-3.38 274.48,-3.68"/>
        <lane id=":1570901527_7_1" index="1" disallow="tram rail_urban rail rail_electric ship" speed="13.89" length="16.11" shape="258.43,-0.08 274.54,-0.38"/>
    </edge>
    <edge id=":1570901527_9" function="internal">
        <lane id=":1570901527_9_0" index="0" disallow="tram rail_urban rail rail_electric ship" speed="13.89" length="6.41" shape="258.43,-0.08 262.68,0.44 264.53,1.51"/>
    </edge>
    <edge id=":1570901527_10" function="internal">
        <lane id=":1570901527_10_0" index="0" disallow="tram rail_urban rail rail_electric ship" speed="13.89" length="2.41" shape="258.43,-0.08 259.69,0.72 260.11,1.54"/>
    </edge>
    <edge id=":1570901527_13" function="internal">
        <lane id=":1570901527_13_0" index="0" speed="13.89" length="9.24" shape="264.53,1.51 265.75,2.21 267.63,5.21 268.32,9.44"/>
    </edge>
    <edge id=":1570901527_14" function="internal">
        <lane id=":1570901527_14_0" index="0" speed="13.89" length="2.41" shape="260.11,1.54 259.72,2.37 258.50,3.22"/>
    </edge>
    <edge id=":3544504237_0" function="internal">
        <lane id=":3544504237_0_0" index="0" disallow="tram rail_urban rail rail_electric ship" speed="13.89" length="4.82" shape="387.64,68.32 388.90,69.11 389.33,69.93 388.94,70.76 387.73,71.62"/>
    </edge>
    <edge id=":3544504238_0" function="internal">
        <lane id=":3544504238_0_0" index="0" disallow="tram rail_urban rail rail_electric ship" speed="13.89" length="5.02" shape="263.18,81.65 262.95,80.29 262.35,79.34 261.36,78.79 259.98,78.65"/>
    </edge>
    <edge id=":3544504238_1" function="internal">
        <lane id=":3544504238_1_0" index="0" disallow="tram rail_urban rail rail_electric ship" speed="13.89" length="16.29" shape="263.18,81.65 262.85,65.37"/>
        <lane id=":3544504238_1_1" index="1" disallow="tram rail_urban rail rail_electric ship" speed="13.89" length="16.29" shape="266.48,81.59 266.15,65.30"/>
    </edge>
    <edge id=":3544504238_3" function="internal">
        <lane id=":3544504238_3_0" index="0" disallow="tram rail_urban rail rail_electric ship" speed="13.89" length="6.49" shape="266.48,81.59 267.00,77.27 268.05,75.41"/>
    </edge>
    <edge id=":3544504238_4" function="internal">
        <lane id=":3544504238_4_0" index="0" disallow="tram rail_urban rail rail_electric ship" speed="13.89" length="2.41" shape="266.48,81.59 267.28,80.33 268.09,79.90"/>
    </edge>
    <edge id=":3544504238_20" function="internal">
        <lane id=":3544504238_20_0" index="0" speed="13.89" length="9.32" shape="268.05,75.41 268.76,74.15 271.77,72.22 276.01,71.49"/>
    </edge>
    <edge id=":3544504238_21" function="internal">
        <lane id=":3544504238_21_0" index="0" speed="13.89" length="2.41" shape="268.09,79.90 268.92,80.30 269.77,81.52"/>
    </edge>
    <edge id=":3544504238_5" function="internal">
        <lane id=":3544504238_5_0" index="0" disallow="tram rail_urban rail rail_electric ship" speed="13.89" length="5.23" shape="276.20,78.09 274.81,78.33 273.82,78.97 273.24,80.02 273.07,81.46"/>
    </edge>
    <edge id=":3544504238_6" function="internal">
        <lane id=":3544504238_6_0" index="0" disallow="tram rail_urban rail rail_electric ship" speed="13.89" length="16.25" shape="276.20,78.09 259.98,78.65"/>
        <lane id=":3544504238_6_1" index="1" disallow="tram rail_urban rail rail_electric ship" speed="13.89" length="16.25" shape="276.11,74.79 259.85,75.35"/>
    </edge>
    <edge id=":3544504238_8" function="internal">
        <lane id=":3544504238_8_0" index="0" disallow="tram rail_urban rail rail_electric ship" speed="13.89" length="6.35" shape="276.11,74.79 271.82,74.30 270.05,73.30"/>
    </edge>
    <edge id=":3544504238_9" function="internal">
        <lane id=":3544504238_9_0" index="0" disallow="tram rail_urban rail rail_electric ship" speed="13.89" length="2.41" shape="276.11,74.79 274.85,74.00 274.41,73.19"/>
    </edge>
    <edge id=":3544504238_22" function="internal">
        <lane id=":3544504238_22_0" index="0" speed="13.89" length="9.37" shape="270.05,73.30 268.74,72.55 266.84,69.55 266.15,65.30"/>
    </edge>
    <edge id=":3544504238_23" function="internal">
        <lane id=":3544504238_23_0" index="0" speed="13.89" length="2.41" shape="274.41,73.19 274.80,72.35 276.01,71.49"/>
    </edge>
    <edge id=":3544504238_10" function="internal">
        <lane id=":3544504238_10_0" index="0" disallow="tram rail_urban rail rail_electric ship" speed="13.89" length="5.01" shape="272.75,65.17 272.97,66.52 273.57,67.48 274.56,68.03 275.92,68.19"/>
    </edge>
    <edge id=":3544504238_11" function="internal">
        <lane id=":3544504238_11_0" index="0" disallow="tram rail_urban rail rail_electric ship" speed="13.89" length="16.29" shape="272.75,65.17 273.07,81.46"/>
        <lane id=":3544504238_11_1" index="1" disallow="tram rail_urban rail rail_electric ship" speed="13.89" length="16.29" shape="269.45,65.23 269.77,81.52"/>
    </edge>
    <edge id=":3544504238_13" function="internal">
        <lane id=":3544504238_13_0" index="0" disallow="tram rail_urban rail rail_electric ship" speed="13.89" length="6.43" shape="269.45,65.23 268.92,69.51 267.87,71.35"/>
    </edge>
    <edge id=":3544504238_14" function="internal">
        <lane id=":3544504238_14_0" index="0" disallow="tram rail_urban rail rail_electric ship" speed="13.89" length="2.41" shape="269.45,65.23 268.65,66.49 267.83,66.92"/>
    </edge>
    <edge id=":3544504238_24" function="internal">
        <lane id=":3544504238_24_0" index="0" speed="13.89" length="9.40" shape="267.87,71.35 267.14,72.62 264.12,74.57 259.85,75.35"/>
    </edge>
    <edge id=":3544504238_25" function="internal">
        <lane id=":3544504238_25_0" index="0" speed="13.89" length="2.41" shape="267.83,66.92 267.00,66.52 266.15,65.30"/>
    </edge>
    <edge id=":3544504238_15" function="internal">
        <lane id=":3544504238_15_0" index="0" disallow="tram rail_urban rail rail_electric ship" speed="13.89" length="5.35" shape="259.58,68.76 261.03,68.49 262.06,67.84 262.67,66.80 262.85,65.37"/>
    </edge>
    <edge id=":3544504238_16" function="internal">
        <lane id=":3544504238_16_0" index="0" disallow="tram rail_urban rail rail_electric ship" speed="13.89" length="16.33" shape="259.58,68.76 275.92,68.19"/>
        <lane id=":3544504238_16_1" index="1" disallow="tram rail_urban rail rail_electric ship" speed="13.89" length="16.33" shape="259.71,72.05 276.01,71.49"/>
    </edge>
    <edge id=":3544504238_18" function="internal">
        <lane id=":3544504238_18_0" index="0" disallow="tram rail_urban rail rail_electric ship" speed="13.89" length="6.51" shape="259.71,72.05 264.04,72.49 265.93,73.54"/>
    </edge>
    <edge id=":3544504238_19" function="internal">
        <lane id=":3544504238_19_0" index="0" disallow="tram rail_urban rail rail_electric ship" speed="13.89" length="2.41" shape="259.71,72.05 260.98,72.83 261.43,73.64"/>
    </edge>
    <edge id=":3544504238_26" function="internal">
        <lane id=":3544504238_26_0" index="0" speed="13.89" length="9.32" shape="265.93,73.54 267.16,74.22 269.07,77.23 269.77,81.52"/>
    </edge>
    <edge id=":3544504238_27" function="internal">
        <lane id=":3544504238_27_0" index="0" speed="13.89" length="2.41" shape="261.43,73.64 261.05,74.48 259.85,75.35"/>
    </edge>
    <edge id=":3544504239_0" function="internal">
        <lane id=":3544504239_0_0" index="0" disallow="tram rail_urban rail rail_electric ship" speed="13.89" length="16.11" shape="120.21,87.14 120.01,71.03"/>
        <lane id=":3544504239_0_1" index="1" disallow="tram rail_urban rail rail_electric ship" speed="13.89" length="16.11" shape="123.51,87.10 123.31,70.99"/>
    </edge>
    <edge id=":3544504239_2" function="internal">
        <lane id=":3544504239_2_0" index="0" disallow="tram rail_urban rail rail_electric ship" speed="13.89" length="6.28" shape="123.51,87.10 124.07,82.93 125.13,81.14"/>
    </edge>
    <edge id=":3544504239_3" function="internal">
        <lane id=":3544504239_3_0" index="0" disallow="tram rail_urban rail rail_electric ship" speed="13.89" length="2.41" shape="123.51,87.10 124.32,85.85 125.14,85.43"/>
    </edge>
    <edge id=":3544504239_11" function="internal">
        <lane id=":3544504239_11_0" index="0" speed="13.89" length="9.41" shape="125.13,81.14 125.88,79.89 128.93,77.99 133.22,77.23"/>
    </edge>
    <edge id=":3544504239_12" function="internal">
        <lane id=":3544504239_12_0" index="0" speed="13.89" length="2.41" shape="125.14,85.43 125.97,85.83 126.81,87.06"/>
    </edge>
    <edge id=":3544504239_4" function="internal">
        <lane id=":3544504239_4_0" index="0" disallow="tram rail_urban rail rail_electric ship" speed="13.89" length="5.27" shape="133.49,83.82 132.00,84.07 130.93,84.69 130.30,85.67 130.11,87.01"/>
    </edge>
    <edge id=":3544504239_5" function="internal">
        <lane id=":3544504239_5_0" index="0" disallow="tram rail_urban rail rail_electric ship" speed="13.89" length="15.90" shape="133.36,80.52 129.01,80.08 125.88,78.34 123.98,75.31 123.31,70.99"/>
    </edge>
    <edge id=":3544504239_6" function="internal">
        <lane id=":3544504239_6_0" index="0" disallow="tram rail_urban rail rail_electric ship" speed="13.89" length="2.41" shape="133.36,80.52 132.09,79.75 131.64,78.94"/>
    </edge>
    <edge id=":3544504239_13" function="internal">
        <lane id=":3544504239_13_0" index="0" speed="13.89" length="2.41" shape="131.64,78.94 132.02,78.10 133.22,77.23"/>
    </edge>
    <edge id=":3544504239_7" function="internal">
        <lane id=":3544504239_7_0" index="0" disallow="tram rail_urban rail rail_electric ship" speed="13.89" length="5.03" shape="129.91,70.91 130.12,72.28 130.72,73.24 131.71,73.79 133.09,73.93"/>
    </edge>
    <edge id=":3544504239_8" function="internal">
        <lane id=":3544504239_8_0" index="0" disallow="tram rail_urban rail rail_electric ship" speed="13.89" length="16.11" shape="129.91,70.91 130.11,87.01"/>
        <lane id=":3544504239_8_1" index="1" disallow="tram rail_urban rail rail_electric ship" speed="13.89" length="16.11" shape="126.61,70.95 126.81,87.06"/>
    </edge>
    <edge id=":3544504239_10" function="internal">
        <lane id=":3544504239_10_0" index="0" disallow="tram rail_urban rail rail_electric ship" speed="13.89" length="2.41" shape="126.61,70.95 125.80,72.20 124.98,72.62"/>
    </edge>
    <edge id=":3544504239_14" function="internal">
        <lane id=":3544504239_14_0" index="0" speed="13.89" length="2.41" shape="124.98,72.62 124.15,72.22 123.31,70.99"/>
    </edge>
    <edge id=":3544504338_0" function="internal">
        <lane id=":3544504338_0_0" index="0" disallow="tram rail_urban rail rail_electric ship" speed="13.89" length="4.82" shape="290.87,1075.42 290.08,1076.68 289.27,1077.11 288.43,1076.72 287.57,1075.50"/>
    </edge>

    <edge id="-143547931#0" from="1570888196" to="1570880869" priority="4" type="highway.residential">
        <lane id="-143547931#0_0" index="0" disallow="tram rail_urban rail rail_electric ship" speed="13.89" length="116.07" shape="116.13,9.23 0.08,11.13"/>
        <lane id="-143547931#0_1" index="1" disallow="tram rail_urban rail rail_electric ship" speed="13.89" length="116.07" shape="116.08,5.93 0.03,7.83"/>
    </edge>
    <edge id="-143547931#1" from="1570901527" to="1570888196" priority="4" type="highway.residential">
        <lane id="-143547931#1_0" index="0" disallow="tram rail_urban rail rail_electric ship" speed="13.89" length="126.36" shape="258.56,6.52 132.23,8.95"/>
        <lane id="-143547931#1_1" index="1" disallow="tram rail_urban rail rail_electric ship" speed="13.89" length="126.36" shape="258.50,3.22 132.16,5.65"/>
    </edge>
    <edge id="-143547931#2" from="1570880867" to="1570901527" priority="4" type="highway.residential">
        <lane id="-143547931#2_0" index="0" disallow="tram rail_urban rail rail_electric ship" speed="13.89" length="70.81" shape="345.46,4.95 274.66,6.22"/>
        <lane id="-143547931#2_1" index="1" disallow="tram rail_urban rail rail_electric ship" speed="13.89" length="70.81" shape="345.40,1.65 274.60,2.92"/>
    </edge>
    <edge id="-143551389#0" from="3544504239" to="1570888195" priority="4" type="highway.residential" shape="125.06,79.21 125.84,141.75 126.55,198.98 127.28,257.62 128.02,316.43 128.76,377.12">
        <lane id="-143551389#0_0" index="0" disallow="tram rail_urban rail rail_electric ship" speed="13.89" length="290.07" shape="130.11,87.01 130.79,141.69 131.50,198.92 132.23,257.56 132.96,316.37 133.71,377.06"/>
        <lane id="-143551389#0_1" index="1" disallow="tram rail_urban rail rail_electric ship" speed="13.89" length="290.07" shape="126.81,87.06 127.49,141.73 128.20,198.96 128.93,257.60 129.67,316.41 130.41,377.10"/>
    </edge>
    <edge id="-143551389#1" from="1570888196" to="3544504239" priority="4" type="highway.residential">
        <lane id="-143551389#1_0" index="0" disallow="tram rail_urban rail rail_electric ship" speed="13.89" length="58.75" shape="129.18,12.17 129.91,70.91"/>
        <lane id="-143551389#1_1" index="1" disallow="tram rail_urban rail rail_electric ship" speed="13.89" length="58.75" shape="125.88,12.21 126.61,70.95"/>
    </edge>
    <edge id="-143553082#0" from="3544504238" to="3544504338" priority="4" type="highway.residential" shape="267.96,73.37 269.30,140.02 270.45,197.23 271.29,238.85 271.64,255.75 271.98,273.08 272.83,315.33 274.00,373.16 275.08,427.06 276.01,473.37 277.60,552.10 278.31,587.49 279.00,621.85 279.66,654.38 280.42,692.04 280.98,720.09 282.08,774.58 283.03,822.03 283.99,869.18 284.94,916.07 286.04,956.89 286.87,987.89 287.80,1022.39 288.76,1058.31 289.22,1075.46">
        <lane id="-143553082#0_0" index="0" disallow="tram rail_urban rail rail_electric ship" speed="13.89" length="994.11" shape="273.07,81.46 274.25,139.92 275.40,197.13 276.24,238.75 276.58,255.66 276.93,272.99 277.78,315.23 278.95,373.06 280.03,426.96 280.96,473.27 282.55,552.00 283.26,587.39 283.95,621.75 284.61,654.28 285.37,691.94 285.93,719.99 287.03,774.48 287.98,821.93 288.94,869.08 289.89,915.96 290.98,956.76 291.82,987.75 292.74,1022.26 293.71,1058.17 294.17,1075.33"/>
        <lane id="-143553082#0_1" index="1" disallow="tram rail_urban rail rail_electric ship" speed="13.89" length="994.11" shape="269.77,81.52 270.95,139.98 272.10,197.20 272.94,238.81 273.29,255.72 273.63,273.05 274.48,315.30 275.65,373.13 276.73,427.02 277.66,473.33 279.25,552.06 279.96,587.45 280.65,621.81 281.31,654.35 282.07,692.01 282.63,720.05 283.73,774.55 284.68,821.99 285.64,869.14 286.59,916.03 287.69,956.85 288.52,987.84 289.45,1022.35 290.41,1058.26 290.87,1075.42"/>
    </edge>
    <edge id="-143553082#1" from="1570901527" to="3544504238" priority="4" type="highway.residential">
        <lane id="-143553082#1_0" index="0" disallow="tram rail_urban rail rail_electric ship" speed="13.89" length="55.80" shape="271.62,9.38 272.75,65.17"/>
        <lane id="-143553082#1_1" index="1" disallow="tram rail_urban rail rail_electric ship" speed="13.89" length="55.80" shape="268.32,9.44 269.45,65.23"/>
    </edge>
    <edge id="-348320661#0" from="3544504238" to="3544504237" priority="4" type="highway.residential">
        <lane id="-348320661#0_0" index="0" disallow="tram rail_urban rail rail_electric ship" speed="13.89" length="111.67" shape="275.92,68.19 387.54,65.02"/>
        <lane id="-348320661#0_1" index="1" disallow="tram rail_urban rail rail_electric ship" speed="13.89" length="111.67" shape="276.01,71.49 387.64,68.32"/>
    </edge>
    <edge id="-348320661#1" from="3544504239" to="3544504238" priority="4" type="highway.residential">
        <lane id="-348320661#1_0" index="0" disallow="tram rail_urban rail rail_electric ship" speed="13.89" length="126.59" shape="133.09,73.93 259.58,68.76"/>
        <lane id="-348320661#1_1" index="1" disallow="tram rail_urban rail rail_electric ship" speed="13.89" length="126.59" shape="133.22,77.23 259.71,72.05"/>
    </edge>
    <edge id="143547931#0" from="1570880869" to="1570888196" priority="4" type="highway.residential">
        <lane id="143547931#0_0" index="0" disallow="tram rail_urban rail rail_electric ship" speed="13.89" length="116.07" shape="-0.08,1.24 115.97,-0.67"/>
        <lane id="143547931#0_1" index="1" disallow="tram rail_urban rail rail_electric ship" speed="13.89" length="116.07" shape="-0.03,4.54 116.02,2.63"/>
    </edge>
    <edge id="143547931#1" from="1570888196" to="1570901527" priority="4" type="highway.residential">
        <lane id="143547931#1_0" index="0" disallow="tram rail_urban rail rail_electric ship" speed="13.89" length="126.36" shape="132.03,-0.95 258.37,-3.38"/>
        <lane id="143547931#1_1" index="1" disallow="tram rail_urban rail rail_electric ship" speed="13.89" length="126.36" shape="132.10,2.35 258.43,-0.08"/>
    </edge>
    <edge id="143547931#2" from="1570901527" to="1570880867" priority="4" type="highway.residential">
        <lane id="143547931#2_0" index="0" disallow="tram rail_urban rail rail_electric ship" speed="13.89" length="70.81" shape="274.48,-3.68 345.28,-4.95"/>
        <lane id="143547931#2_1" index="1" disallow="tram rail_urban rail rail_electric ship" speed="13.89" length="70.81" shape="274.54,-0.38 345.34,-1.65"/>
    </edge>
    <edge id="143551389#0" from="1570888195" to="3544504239" priority="4" type="highway.residential" shape="128.76,377.12 128.02,316.43 127.28,257.62 126.55,198.98 125.84,141.75 125.06,79.21">
        <lane id="143551389#0_0" index="0" disallow="tram rail_urban rail rail_electric ship" speed="13.89" length="290.07" shape="123.81,377.18 123.07,316.50 122.33,257.68 121.60,199.04 120.89,141.81 120.21,87.14"/>
        <lane id="143551389#0_1" index="1" disallow="tram rail_urban rail rail_electric ship" speed="13.89" length="290.07" shape="127.11,377.14 126.37,316.46 125.63,257.64 124.90,199.00 124.19,141.77 123.51,87.10"/>
    </edge>
    <edge id="143551389#1" from="3544504239" to="1570888196" priority="4" type="highway.residential">
        <lane id="143551389#1_0" index="0" disallow="tram rail_urban rail rail_electric ship" speed="13.89" length="58.75" shape="120.01,71.03 119.28,12.29"/>
        <lane id="143551389#1_1" index="1" disallow="tram rail_urban rail rail_electric ship" speed="13.89" length="58.75" shape="123.31,70.99 122.58,12.25"/>
    </edge>