<?xml version="1.0" encoding="UTF-8"?>

<!-- generated on Sun Jul  2 14:57:29 2017 by SUMO polyconvert Version 0.28.0
<?xml version="1.0" encoding="UTF-8"?>

<configuration xmlns:xsi="http://www.w3.org/2001/XMLSchema-instance" xsi:noNamespaceSchemaLocation="http://sumo.dlr.de/xsd/polyconvertConfiguration.xsd">

    <input>
        <net-file value="bangalore.net.xml"/>
        <osm-files value="bangalore.osm"/>
        <type-file value="typemap.xml"/>
    </input>

    <output>
        <output-file value="bangalore.poly.xml"/>
    </output>

    <processing>
        <poi-layer-offset value="5"/>
    </processing>

</configuration>
-->

<additional xmlns:xsi="http://www.w3.org/2001/XMLSchema-instance" xsi:noNamespaceSchemaLocation="http://sumo.dlr.de/xsd/additional_file.xsd">
    <location netOffset="-790641.28,-1441646.19" convBoundary="0.00,0.00,387.69,1075.46" origBoundary="77.679576,13.026894,77.683154,13.036613" projParameter="+proj=utm +zone=43 +ellps=WGS84 +datum=WGS84 +units=m +no_defs"/>

</additional>
