<additional>
	<inductionLoop id='-143547931#0_0loop' lane='-143547931#0_0' pos='-10' freq='100' file='/home/wert/Documents/development/Traffic-Optimisation/data/resultsOfDetectors.xml'/>
	<inductionLoop id='-143547931#0_1loop' lane='-143547931#0_1' pos='-10' freq='100' file='/home/wert/Documents/development/Traffic-Optimisation/data/resultsOfDetectors.xml'/>
	<inductionLoop id='-143547931#1_0loop' lane='-143547931#1_0' pos='-10' freq='100' file='/home/wert/Documents/development/Traffic-Optimisation/data/resultsOfDetectors.xml'/>
	<inductionLoop id='-143547931#1_1loop' lane='-143547931#1_1' pos='-10' freq='100' file='/home/wert/Documents/development/Traffic-Optimisation/data/resultsOfDetectors.xml'/>
	<inductionLoop id='-143547931#2_0loop' lane='-143547931#2_0' pos='-10' freq='100' file='/home/wert/Documents/development/Traffic-Optimisation/data/resultsOfDetectors.xml'/>
	<inductionLoop id='-143547931#2_1loop' lane='-143547931#2_1' pos='-10' freq='100' file='/home/wert/Documents/development/Traffic-Optimisation/data/resultsOfDetectors.xml'/>
	<inductionLoop id='-143551389#0_0loop' lane='-143551389#0_0' pos='-10' freq='100' file='/home/wert/Documents/development/Traffic-Optimisation/data/resultsOfDetectors.xml'/>
	<inductionLoop id='-143551389#0_1loop' lane='-143551389#0_1' pos='-10' freq='100' file='/home/wert/Documents/development/Traffic-Optimisation/data/resultsOfDetectors.xml'/>
	<inductionLoop id='-143551389#1_0loop' lane='-143551389#1_0' pos='-10' freq='100' file='/home/wert/Documents/development/Traffic-Optimisation/data/resultsOfDetectors.xml'/>
	<inductionLoop id='-143551389#1_1loop' lane='-143551389#1_1' pos='-10' freq='100' file='/home/wert/Documents/development/Traffic-Optimisation/data/resultsOfDetectors.xml'/>
	<inductionLoop id='-143553082#0_0loop' lane='-143553082#0_0' pos='-10' freq='100' file='/home/wert/Documents/development/Traffic-Optimisation/data/resultsOfDetectors.xml'/>
	<inductionLoop id='-143553082#0_1loop' lane='-143553082#0_1' pos='-10' freq='100' file='/home/wert/Documents/development/Traffic-Optimisation/data/resultsOfDetectors.xml'/>
	<inductionLoop id='-143553082#1_0loop' lane='-143553082#1_0' pos='-10' freq='100' file='/home/wert/Documents/development/Traffic-Optimisation/data/resultsOfDetectors.xml'/>
	<inductionLoop id='-143553082#1_1loop' lane='-143553082#1_1' pos='-10' freq='100' file='/home/wert/Documents/development/Traffic-Optimisation/data/resultsOfDetectors.xml'/>
	<inductionLoop id='-348320661#0_0loop' lane='-348320661#0_0' pos='-10' freq='100' file='/home/wert/Documents/development/Traffic-Optimisation/data/resultsOfDetectors.xml'/>
	<inductionLoop id='-348320661#0_1loop' lane='-348320661#0_1' pos='-10' freq='100' file='/home/wert/Documents/development/Traffic-Optimisation/data/resultsOfDetectors.xml'/>
	<inductionLoop id='-348320661#1_0loop' lane='-348320661#1_0' pos='-10' freq='100' file='/home/wert/Documents/development/Traffic-Optimisation/data/resultsOfDetectors.xml'/>
	<inductionLoop id='-348320661#1_1loop' lane='-348320661#1_1' pos='-10' freq='100' file='/home/wert/Documents/development/Traffic-Optimisation/data/resultsOfDetectors.xml'/>
	<inductionLoop id='143547931#0_0loop' lane='143547931#0_0' pos='-10' freq='100' file='/home/wert/Documents/development/Traffic-Optimisation/data/resultsOfDetectors.xml'/>
	<inductionLoop id='143547931#0_1loop' lane='143547931#0_1' pos='-10' freq='100' file='/home/wert/Documents/development/Traffic-Optimisation/data/resultsOfDetectors.xml'/>
	<inductionLoop id='143547931#1_0loop' lane='143547931#1_0' pos='-10' freq='100' file='/home/wert/Documents/development/Traffic-Optimisation/data/resultsOfDetectors.xml'/>
	<inductionLoop id='143547931#1_1loop' lane='143547931#1_1' pos='-10' freq='100' file='/home/wert/Documents/development/Traffic-Optimisation/data/resultsOfDetectors.xml'/>
	<inductionLoop id='143547931#2_0loop' lane='143547931#2_0' pos='-10' freq='100' file='/home/wert/Documents/development/Traffic-Optimisation/data/resultsOfDetectors.xml'/>
	<inductionLoop id='143547931#2_1loop' lane='143547931#2_1' pos='-10' freq='100' file='/home/wert/Documents/development/Traffic-Optimisation/data/resultsOfDetectors.xml'/>
	<inductionLoop id='143551389#0_0loop' lane='143551389#0_0' pos='-10' freq='100' file='/home/wert/Documents/development/Traffic-Optimisation/data/resultsOfDetectors.xml'/>
	<inductionLoop id='143551389#0_1loop' lane='143551389#0_1' pos='-10' freq='100' file='/home/wert/Documents/development/Traffic-Optimisation/data/resultsOfDetectors.xml'/>
	<inductionLoop id='143551389#1_0loop' lane='143551389#1_0' pos='-10' freq='100' file='/home/wert/Documents/development/Traffic-Optimisation/data/resultsOfDetectors.xml'/>
	<inductionLoop id='143551389#1_1loop' lane='143551389#1_1' pos='-10' freq='100' file='/home/wert/Documents/development/Traffic-Optimisation/data/resultsOfDetectors.xml'/>
	<inductionLoop id='143553082#0_0loop' lane='143553082#0_0' pos='-10' freq='100' file='/home/wert/Documents/development/Traffic-Optimisation/data/resultsOfDetectors.xml'/>
	<inductionLoop id='143553082#0_1loop' lane='143553082#0_1' pos='-10' freq='100' file='/home/wert/Documents/development/Traffic-Optimisation/data/resultsOfDetectors.xml'/>
	<inductionLoop id='143553082#1_0loop' lane='143553082#1_0' pos='-10' freq='100' file='/home/wert/Documents/development/Traffic-Optimisation/data/resultsOfDetectors.xml'/>
	<inductionLoop id='143553082#1_1loop' lane='143553082#1_1' pos='-10' freq='100' file='/home/wert/Documents/development/Traffic-Optimisation/data/resultsOfDetectors.xml'/>
	<inductionLoop id='348320661#0_0loop' lane='348320661#0_0' pos='-10' freq='100' file='/home/wert/Documents/development/Traffic-Optimisation/data/resultsOfDetectors.xml'/>
	<inductionLoop id='348320661#0_1loop' lane='348320661#0_1' pos='-10' freq='100' file='/home/wert/Documents/development/Traffic-Optimisation/data/resultsOfDetectors.xml'/>
	<inductionLoop id='348320661#1_0loop' lane='348320661#1_0' pos='-10' freq='100' file='/home/wert/Documents/development/Traffic-Optimisation/data/resultsOfDetectors.xml'/>
	<inductionLoop id='348320661#1_1loop' lane='348320661#1_1' pos='-10' freq='100' file='/home/wert/Documents/development/Traffic-Optimisation/data/resultsOfDetectors.xml'/>
</additional>